8

C      0.687815   -0.299608    0.059165
C     -0.758736    0.157582   -0.014852
F     -1.168040    0.306758   -1.298657
F     -1.583727   -0.760193    0.547844
F     -0.970222    1.332233    0.619573
F      1.081594   -0.478715    1.350099
Br     1.884117    0.986981   -0.791392
H      0.827198   -1.245037   -0.471779
