21

C     -2.685052    0.443562    0.051773
C     -1.378008   -0.328084    0.187473
C     -0.186199    0.521477   -0.270235
C      1.175340   -0.202319   -0.216687
C      1.555530   -0.624807    1.202989
C      2.265710    0.704662   -0.793995
O     -1.452423   -1.502885   -0.614216
H     -2.671424    1.357853    0.652726
H     -2.876583    0.710906   -0.993279
H     -3.529417   -0.173676    0.377262
H     -1.251982   -0.634647    1.230714
H     -0.359200    0.832856   -1.309331
H     -0.140096    1.437114    0.333153
H      1.128131   -1.102580   -0.841753
H      0.864662   -1.378130    1.593092
H      1.550906    0.230833    1.886616
H      2.557990   -1.066131    1.221441
H      3.234382    0.193641   -0.800112
H      2.032050    0.986005   -1.826281
H      2.370915    1.623497   -0.207020
H     -2.205233   -2.029147   -0.295029
