22

C     -1.412584   -1.192572    0.333586
C     -0.687528   -0.118086   -0.198452
C     -1.311287    0.704352   -1.145981
C     -2.631563    0.463261   -1.548930
C     -3.355191   -0.610511   -1.012417
C     -2.733039   -1.437015   -0.066753
Cl    -3.533163   -2.791199    0.655165
Cl    -4.988463   -0.913284   -1.512419
Cl    -3.301770    1.542009   -2.724644
C      0.697451    0.137408    0.223928
C      1.739581   -0.474843   -0.489747
C      3.076083   -0.269863   -0.135464
C      3.404095    0.557078    0.947246
C      2.374980    1.180868    1.676602
C      1.027332    0.970850    1.315103
Cl    -0.258783    1.735668    2.207697
Cl     2.763280    2.212210    3.025487
Cl     5.071422    0.801749    1.375060
Cl     4.271219   -1.078323   -1.090235
H     -0.949296   -1.844813    1.073230
H     -0.768163    1.547135   -1.572429
H      1.505385   -1.122079   -1.335632
