13

C      1.311256   -0.373229    0.469122
C      0.242409    0.351160   -0.304449
C      0.566346    1.320269   -1.176654
C     -1.153647   -0.003950   -0.103342
C     -1.618572   -0.944321    0.729030
H      1.293199   -1.445328    0.245397
H      2.314202   -0.007598    0.221752
H      1.172486   -0.233830    1.546660
H     -0.183777    1.858859   -1.747676
H      1.600111    1.605681   -1.346480
H     -1.885279    0.552342   -0.689130
H     -0.972696   -1.550922    1.353702
H     -2.686037   -1.129133    0.802068
