12

C     -0.623950   -1.282065    0.070172
C      0.711123   -1.233222    0.106759
C      1.433807    0.052455    0.039288
O      2.655753    0.097159    0.072768
C      0.623949    1.282065   -0.070174
C     -0.711123    1.233223   -0.106755
C     -1.433807   -0.052455   -0.039287
O     -2.655754   -0.097157   -0.072769
H     -1.169433   -2.216744    0.118614
H      1.319932   -2.125670    0.186835
H      1.169434    2.216742   -0.118622
H     -1.319933    2.125670   -0.186829
