18

C      2.433773    0.043518    0.352168
C      1.638079    0.341579   -0.909367
C      0.161121    0.121122   -0.705733
C     -0.656500    1.162559   -0.247053
C     -2.021441    0.953143   -0.043385
C     -2.580406   -0.299093   -0.291548
C     -1.774889   -1.343502   -0.741519
C     -0.409758   -1.135852   -0.945723
H      2.302281   -0.996860    0.668394
H      2.121379    0.688282    1.180640
H      3.500748    0.211867    0.175158
H      1.816575    1.376979   -1.224236
H      1.995611   -0.290746   -1.731190
H     -0.233428    2.143860   -0.044953
H     -2.648197    1.767314    0.310555
H     -3.642950   -0.461568   -0.132303
H     -2.209283   -2.321198   -0.932269
H      0.207284   -1.961403   -1.292869
