22

C     -3.604879    0.429807   -0.576215
C     -2.397069    0.733061   -1.208200
C     -1.194054    0.367657   -0.606462
C     -1.193756   -0.295243    0.616311
C     -2.394895   -0.601294    1.253019
C     -3.597804   -0.235772    0.651051
Cl    -5.087520   -0.607804    1.426761
O     -0.032201   -0.669226    1.236411
C      1.139086   -0.354550    0.585579
C      1.138102    0.311160   -0.642317
C      2.348472    0.617338   -1.279820
C      3.568041    0.253704   -0.682355
C      3.569067   -0.417761    0.556158
C      2.350503   -0.720862    1.188467
Cl     2.306734   -1.547857    2.716521
Cl     5.072982   -0.873286    1.306045
Cl     5.070628    0.634631   -1.475293
Cl     2.302127    1.446584   -2.806656
O     -0.034170    0.684024   -1.259678
H     -4.544645    0.713754   -1.043413
H     -2.396245    1.251087   -2.163806
H     -2.388502   -1.119154    2.207897
