11

C     -0.226559    1.193211    0.083484
C     -1.307351    0.322350   -0.018748
C     -1.051192   -1.037501   -0.113961
N      0.188953   -1.570262   -0.113485
C      1.212533   -0.697606   -0.013011
C      1.065126    0.675791    0.086835
Cl     2.769797   -1.416274   -0.016193
H     -0.389347    2.264700    0.159801
H     -2.326584    0.693648   -0.024212
H     -1.862971   -1.755215   -0.195601
H      1.927596    1.327158    0.165091
