15

C     -2.199252   -0.051252    0.228452
C     -0.705136   -0.023827    0.072538
C     -0.007078   -1.227242   -0.116808
C      1.381675   -1.231853   -0.264609
C      2.092380   -0.034998   -0.225373
C      1.413777    1.168462   -0.038087
C      0.023638    1.175388    0.110082
Cl    -0.756437    2.700262    0.338923
H     -2.489248    0.356590    1.202093
H     -2.677213    0.526285   -0.569305
H     -2.589597   -1.073123    0.171980
H     -0.542482   -2.174074   -0.150695
H      1.908259   -2.172004   -0.410542
H      3.173199   -0.038354   -0.340378
H      1.973515    2.099741   -0.008271
