19

C      2.623388    0.457643   -0.050551
C      1.628214   -0.672864   -0.092644
O      1.998120   -1.840831   -0.201488
N      0.301595   -0.319660   -0.011647
C     -0.243334    1.024657    0.085581
C     -1.735769    0.844217   -0.155231
C     -2.001853   -0.556634    0.382548
C     -0.750370   -1.320166   -0.025647
H      2.551182    1.050981   -0.965641
H      2.449879    1.088368    0.825179
H      3.635171    0.047439    0.021380
H     -0.044215    1.396053    1.096597
H      0.222769    1.694421   -0.642168
H     -2.338236    1.613648    0.335034
H     -1.948595    0.873520   -1.230721
H     -2.082075   -0.523666    1.475827
H     -2.917109   -1.002475   -0.016004
H     -0.516248   -2.147628    0.650798
H     -0.832513   -1.707024   -1.047440
