20

C      0.245359   -1.289259   -1.134010
C      0.188218   -0.027537   -0.260995
O      1.498080    0.224789    0.265637
C      1.907178   -0.671585    1.285859
O     -0.762049   -0.154499    0.800035
C     -2.090712   -0.425129    0.381716
O     -0.166396    1.043709   -1.147165
C     -0.099478    2.318736   -0.523991
H     -0.643834   -1.380075   -1.767594
H      1.113465   -1.258615   -1.802077
H      0.312550   -2.198751   -0.528850
H      1.960128   -1.699848    0.919668
H      1.246960   -0.610393    2.155704
H      2.911125   -0.379063    1.607010
H     -2.438378    0.300499   -0.358959
H     -2.176563   -1.441828   -0.011210
H     -2.740506   -0.352565    1.258614
H     -0.730801    2.361585    0.368279
H     -0.467016    3.062147   -1.237057
H      0.932671    2.577684   -0.270616
