24

C      3.650708    0.500313   -1.049589
C      2.766824   -0.117964    0.021848
C      1.284906    0.116053   -0.270714
C      0.400805   -0.508406    0.810901
C     -1.064201   -0.283291    0.531926
C     -1.712128    0.861034    1.015753
C     -3.063935    1.076846    0.743178
C     -3.778596    0.154255   -0.018579
C     -3.141894   -0.983765   -0.510217
C     -1.790149   -1.201223   -0.238643
H      4.705819    0.321024   -0.820458
H      3.495286    1.582212   -1.110184
H      3.437954    0.066753   -2.031982
H      2.969830   -1.193722    0.078624
H      3.026851    0.313544    0.995437
H      1.032637   -0.309598   -1.250290
H      1.089520    1.194008   -0.335705
H      0.652389   -0.089866    1.793718
H      0.595789   -1.585940    0.883711
H     -1.165909    1.591843    1.607636
H     -3.558826    1.966150    1.124215
H     -4.830821    0.323171   -0.230835
H     -3.697606   -1.702073   -1.107030
H     -1.305255   -2.091359   -0.632721
