15

C      2.772438    0.285537   -0.178626
O      1.435828    0.580104   -0.583453
C      0.489513   -0.091388    0.124478
O      0.699149   -0.884000    1.031501
C     -0.877124    0.256609   -0.342346
C     -2.023115    0.337010    0.639006
C     -1.969586   -0.787021   -0.355615
H      2.993559   -0.776122   -0.327237
H      2.929343    0.572357    0.865986
H      3.452639    0.870889   -0.803534
H     -0.896297    0.975922   -1.156282
H     -2.763544    1.114292    0.491481
H     -1.829332    0.099377    1.679746
H     -2.673630   -0.773776   -1.179211
H     -1.739842   -1.779790    0.016930
