21

C     -3.408513   -0.350676   -0.056896
C     -2.128504    0.086953    0.637060
C     -0.895903   -0.230690   -0.209140
C      0.389470    0.211032    0.492355
C      1.621105   -0.106233   -0.352923
C      2.904871    0.330459    0.338517
O      4.008662    0.008423   -0.496279
H     -3.405997   -1.429850   -0.240506
H     -3.529025    0.161250   -1.016972
H     -4.277091   -0.114057    0.565596
H     -2.054676   -0.418252    1.607124
H     -2.177025    1.164076    0.834939
H     -0.854419   -1.308632   -0.407664
H     -0.976764    0.273631   -1.179817
H      0.347930    1.288963    0.690689
H      0.470286   -0.293439    1.462908
H      1.670228   -1.181833   -0.564037
H      1.548863    0.387738   -1.329996
H      3.029030   -0.187264    1.294976
H      2.905464    1.410772    0.515125
H      4.812007    0.297627   -0.030943
