15

C     -2.167808   -0.391789   -0.284017
C     -0.700119   -0.784179   -0.343379
C      0.210331    0.442831   -0.296313
C      1.684686    0.044633   -0.356175
C      2.553843    1.227927   -0.310562
N      3.241991    2.161488   -0.274637
H     -2.392519    0.147861    0.641519
H     -2.437143    0.248917   -1.129764
H     -2.800442   -1.284238   -0.318995
H     -0.516153   -1.349327   -1.264503
H     -0.471772   -1.449833    0.497136
H     -0.028095    1.110494   -1.134345
H      0.016181    1.010228    0.623081
H      1.925677   -0.617708    0.483313
H      1.881340   -0.517304   -1.276537
