12

C     -1.875592   -0.335215   -0.998681
O     -0.495947   -0.025124   -1.051603
S      0.314231   -0.016155    0.361274
O     -0.170678    1.086116    1.164278
O      0.370093   -1.370133    0.869779
C      1.906854    0.413349   -0.296534
H     -2.027071   -1.340702   -0.595431
H     -2.278377   -0.302111   -2.014390
H     -2.409785    0.397626   -0.387008
H      1.834675    1.383626   -0.791386
H      2.218651   -0.360437   -1.000496
H      2.612947    0.469161    0.534529
