15

C     -1.053826   -0.726860    0.188966
C     -1.034286    0.732079   -0.262477
C      0.283261    1.312028    0.239233
S      1.477396   -0.003693    0.052011
C      0.292829   -1.313468   -0.218952
O      2.130692   -0.220484    1.326054
O      2.219742    0.209611   -1.172898
H     -1.883538   -1.281716   -0.258901
H     -1.166909   -0.773483    1.278857
H     -1.890659    1.291150    0.126031
H     -1.070212    0.779074   -1.357614
H      0.222727    1.560182    1.302909
H      0.601281    2.186173   -0.332392
H      0.306007   -1.561504   -1.284295
H      0.565495   -2.189089    0.373468
