28

C     -4.909377    0.011100   -0.583622
C     -3.668774   -0.073160    0.291199
C     -2.389740    0.024832   -0.539873
C     -1.144192   -0.060336    0.343826
C      0.135846    0.037719   -0.487764
C      1.381059   -0.047421    0.395650
C      2.659000    0.050440   -0.434295
C      3.913799   -0.031211    0.417053
O      3.883945   -0.161851    1.639741
C      5.223614    0.057231   -0.322422
H     -4.942916    0.961170   -1.126373
H     -4.930030   -0.803493   -1.314614
H     -5.812148   -0.061052    0.030958
H     -3.682257   -1.019720    0.843962
H     -3.695072    0.735212    1.031164
H     -2.383229    0.971438   -1.093918
H     -2.370414   -0.783416   -1.281110
H     -1.163616    0.748034    1.084886
H     -1.150799   -1.007026    0.897672
H      0.142467    0.984427   -1.041568
H      0.155285   -0.770680   -1.228787
H      1.361798    0.758361    1.140039
H      1.374582   -0.992279    0.953300
H      2.680838    1.003127   -0.975013
H      2.693758   -0.766343   -1.163762
H      6.053246   -0.012339    0.386601
H      5.298172   -0.767664   -1.035219
H      5.285156    1.014901   -0.845080
