32

C      5.673612   -0.385169    0.228912
C      4.421082    0.415156   -0.090707
C      3.154234   -0.398632    0.172085
C      1.896632    0.409979   -0.150649
C      0.628793   -0.404336    0.112309
C     -0.628793    0.404334   -0.210448
C     -1.896632   -0.409980    0.052511
C     -3.154234    0.398631   -0.270226
C     -4.421082   -0.415155   -0.007432
C     -5.673611    0.385172   -0.327049
H      6.567386    0.215692    0.033861
H      5.730127   -1.288129   -0.387372
H      5.689265   -0.685618    1.281443
H      4.411515    1.326454    0.518512
H      4.452151    0.727264   -1.141101
H      3.130155   -0.711811    1.222994
H      3.170788   -1.310973   -0.436545
H      1.920809    0.722943   -1.201589
H      1.880171    1.322176    0.458147
H      0.604604   -0.717292    1.163246
H      0.645243   -1.316527   -0.496486
H     -0.604604    0.717290   -1.261384
H     -0.645243    1.316525    0.398347
H     -1.880171   -1.322178   -0.556283
H     -1.920811   -0.722942    1.103452
H     -3.170787    1.310974    0.338401
H     -3.130154    0.711806   -1.321136
H     -4.452151   -0.727263    1.042963
H     -4.411518   -1.326454   -0.616651
H     -5.730123    1.288132    0.289233
H     -6.567387   -0.215687   -0.131996
H     -5.689266    0.685619   -1.379581
