9

C      1.124592   -0.024582    0.157563
C     -0.235639    0.417394   -0.272298
C     -1.361004   -0.262482   -0.021062
H      1.768593   -0.153341   -0.717686
H      1.574229    0.732064    0.807709
H      1.097549   -0.972472    0.704313
H     -0.293905    1.353592   -0.823132
H     -1.351854   -1.200834    0.524764
H     -2.322562    0.110662   -0.360172
