22

C     -3.404594   -0.438185    1.448235
C     -3.695505    0.001284    0.155120
C     -2.659448    0.294004   -0.733364
C     -1.335859    0.145422   -0.323236
C     -1.046299   -0.292008    0.963868
C     -2.077267   -0.585476    1.854454
O      0.239941   -0.450319    1.403598
C      1.235917   -0.152731    0.501571
C      0.944890    0.286917   -0.792048
C      1.982561    0.581851   -1.687103
C      3.320957    0.435078   -1.282647
C      3.614459   -0.008299    0.021976
C      2.567542   -0.301863    0.913163
Cl     2.886286   -0.851395    2.531136
Cl     5.268367   -0.193891    0.534218
Cl     4.609316    0.801715   -2.395286
Cl     1.577297    1.126066   -3.287419
O     -0.351697    0.443449   -1.226256
H     -4.212535   -0.665937    2.139539
H     -4.729920    0.115653   -0.160236
H     -2.884672    0.636062   -1.739880
H     -1.849737   -0.927397    2.860498
