16

C      2.454034    0.078686    0.264742
C      1.181753   -0.000068   -0.565055
N      0.013990    0.088868    0.309459
C     -1.227304    0.005464   -0.457735
C     -2.420385    0.089881    0.481890
H      2.512712   -0.747316    0.981648
H      3.332497    0.022411   -0.386151
H      2.506469    1.020723    0.821068
H      1.177664    0.823418   -1.288144
H      1.175041   -0.944036   -1.122122
H      0.042954   -0.662500    0.998361
H     -1.274481   -0.938412   -1.012998
H     -1.283754    0.829070   -1.178492
H     -2.418824    1.032035    1.040484
H     -2.418870   -0.735990    1.201344
H     -3.353495    0.037767   -0.088299
