11

C      1.402434   -0.425855    0.027110
C      0.146462    0.248133    0.550262
C     -1.006214    0.099938   -0.404108
O     -1.013097   -0.472797   -1.479663
O     -2.121169    0.698242    0.060281
H      1.238473   -1.497601   -0.127038
H      2.225196   -0.304073    0.738264
H      1.710641    0.006180   -0.930824
H     -0.135935   -0.200914    1.508103
H      0.340251    1.315665    0.697477
H     -2.787043    0.533083   -0.639863
