11

C      0.051279    1.071159   -0.501560
C     -1.090352    0.287518   -0.633327
C     -1.103167   -0.959214   -0.028383
N     -0.069883   -1.459687    0.683495
C      1.024882   -0.675988    0.794060
C      1.132043    0.583296    0.225569
H      0.098322    2.053873   -0.961704
H     -1.949371    0.638825   -1.193425
H     -1.970950   -1.608199   -0.102436
H      1.841259   -1.100814    1.370918
H      2.035938    1.169231    0.346794
