20

C     -2.309878   -1.059268   -0.397252
C     -1.230030   -0.166817    0.219129
C     -1.536128    1.300107   -0.085757
C      0.155099   -0.594858   -0.292174
C      1.312522    0.146870    0.372153
O      2.537946   -0.424076   -0.110085
C      3.654326    0.138199    0.415151
O      3.699364    1.048320    1.226617
H     -2.331350   -0.961978   -1.488104
H     -3.300642   -0.793456   -0.013572
H     -2.130808   -2.111921   -0.153836
H     -1.261301   -0.304922    1.307330
H     -1.454046    1.508329   -1.157884
H     -2.552242    1.558651    0.231528
H     -0.851942    1.968595    0.445456
H      0.291054   -1.671549   -0.124015
H      0.219105   -0.460490   -1.380009
H      1.289851    1.210498    0.112103
H      1.259568    0.029980    1.460810
H      4.539531   -0.360212   -0.009407
