12

C     -1.950909    0.050738   -0.086628
O     -0.677896   -0.280075   -0.620291
C      0.370551    0.033707    0.295639
C      1.754439   -0.255288   -0.302743
Cl     2.102966    0.771518   -1.730820
Cl     3.064166   -0.024719    0.897665
F      0.170289   -0.725515    1.405387
F      0.245015    1.330309    0.671376
H     -2.033781    1.128332    0.083694
H     -2.712071   -0.239020   -0.816406
H     -2.140487   -0.495296    0.842369
H      1.807717   -1.294690   -0.639242
