13

C     -1.865734    0.160658    0.117918
N     -0.429453    0.036958    0.027248
C      0.247173   -1.120538   -0.250673
C      1.594915   -0.832977   -0.248103
C      1.731891    0.545969    0.040404
C      0.463713    1.059393    0.205417
H     -2.112470    0.953148    0.829148
H     -2.285326   -0.787063    0.465095
H     -2.248219    0.406514   -0.875687
H     -0.276458   -2.050803   -0.427890
H      2.392469   -1.540210   -0.434661
H      2.655217    1.104902    0.118756
H      0.132285    2.064050    0.433029
