13

C     -1.871960   -0.170557    0.076626
O     -0.736344   -0.852610   -0.438242
C      0.208127    0.050238   -1.001968
O      0.832703    0.875870   -0.025656
C      1.683636    0.125099    0.830011
H     -1.586521    0.504251    0.889125
H     -2.379648    0.386610   -0.716730
H     -2.566294   -0.915300    0.475214
H      0.966324   -0.530589   -1.539241
H     -0.285614    0.694901   -1.737845
H      2.147477    0.814205    1.541065
H      1.112394   -0.618699    1.393432
H      2.475722   -0.363418    0.254210
