12

C     -1.474018    0.037619    0.017401
C     -0.808407   -1.188066   -0.011823
C      0.586976   -1.225965   -0.028337
C      1.311092   -0.033461   -0.015478
C      0.649244    1.194415    0.013738
C     -0.746256    1.227743    0.030172
I      3.389129   -0.086495   -0.039995
H     -2.560804    0.065355    0.030235
H     -1.376725   -2.114706   -0.021750
H      1.092446   -2.187739   -0.051077
H      1.203504    2.129143    0.023967
H     -1.266181    2.182156    0.052946
