24

C      2.795310   -0.775310   -0.596982
C      1.551772   -0.032663   -0.200542
C      1.483360    1.306501   -0.271710
C      0.271983    2.035833    0.174590
O      0.243769    3.261685    0.090275
C     -0.862921    1.245888    0.789975
C     -0.971944   -0.177874    0.215968
C      0.403372   -0.881346    0.289815
C     -1.474994   -0.127300   -1.242760
C     -1.992855   -0.979903    1.043153
H      3.595234   -0.098835   -0.916078
H      2.582772   -1.456053   -1.427620
H      3.171414   -1.361974    0.247388
H      2.300577    1.923502   -0.627740
H     -0.686358    1.218184    1.872360
H     -1.796321    1.795120    0.617151
H      0.624557   -1.172907    1.325226
H      0.360153   -1.810475   -0.293502
H     -1.580987   -1.136912   -1.656029
H     -0.795361    0.425280   -1.899190
H     -2.456001    0.357862   -1.302647
H     -1.690737   -1.042723    2.094635
H     -2.983414   -0.512341    1.010214
H     -2.092381   -2.003241    0.664049
