19

C     -2.570500    0.346201    0.553349
C     -1.661189    0.589342   -0.641400
C     -0.268730    0.063684   -0.402058
C      0.060398   -1.255205   -0.747193
C      1.344822   -1.749809   -0.511782
C      2.309582   -0.932960    0.074417
C      1.984114    0.371795    0.423402
C      0.706277    0.876935    0.193662
O      2.956667    1.136214    0.998224
H     -2.661004   -0.723093    0.772655
H     -3.572832    0.737075    0.351724
H     -2.187372    0.841929    1.451759
H     -1.617215    1.662944   -0.861593
H     -2.086747    0.114439   -1.533819
H     -0.683694   -1.905915   -1.201410
H      1.592916   -2.772163   -0.783824
H      3.310008   -1.312328    0.260374
H      0.457123    1.896221    0.473024
H      2.587376    2.014695    1.183973
