27

C      3.613302    0.037826   -0.161829
C      2.120106    0.001090    0.000010
C      1.480483   -1.086223    0.466986
C     -0.012557   -1.176215    0.619936
C     -0.786521   -0.051107   -0.103337
C     -0.069423    1.295703    0.125442
C      1.381785    1.262036   -0.372946
O      1.402255    1.390266   -1.791663
C     -2.268150   -0.076653    0.278904
C     -2.880275    0.851850    1.034443
C     -3.062854   -1.230203   -0.282059
H      4.082549   -0.904330    0.140547
H      3.880559    0.221298   -1.207373
H      4.042646    0.835439    0.452997
H      2.045645   -1.970184    0.755195
H     -0.334471   -2.148242    0.226679
H     -0.245903   -1.173871    1.692349
H     -0.743176   -0.248862   -1.184528
H     -0.063099    1.532221    1.197743
H     -0.612793    2.096705   -0.391450
H      1.902055    2.135007    0.037389
H      1.232842    0.507762   -2.162546
H     -2.358130    1.704365    1.454830
H     -3.940672    0.786060    1.262644
H     -2.708478   -2.180240    0.128968
H     -4.129956   -1.148711   -0.048456
H     -2.967770   -1.262787   -1.372307
