23

C      3.671411    0.315393    0.011870
C      2.663173    0.818707    0.835018
C      1.383128    0.264353    0.790587
C      1.111877   -0.784624   -0.091738
C      2.125369   -1.303339   -0.898176
C      3.404247   -0.747532   -0.851731
O     -0.117420   -1.400182   -0.160276
C     -1.227110   -0.589475   -0.238538
C     -1.320874    0.477982   -1.135293
C     -2.490769    1.237122   -1.188681
C     -3.567815    0.919944   -0.359941
C     -3.480425   -0.160839    0.518276
C     -2.311921   -0.921189    0.573696
H      4.668574    0.746747    0.049531
H      2.875528    1.638631    1.516115
H      0.608180    0.649317    1.447366
H      1.916917   -2.135962   -1.564148
H      4.192624   -1.145727   -1.484994
H     -0.493381    0.719580   -1.796342
H     -2.564379    2.071665   -1.881058
H     -4.479255    1.510793   -0.404572
H     -4.323388   -0.413560    1.155977
H     -2.244290   -1.767804    1.251119
