10

C     -1.123627   -0.046647   -0.085760
C      0.244880   -0.515876    0.361192
N      1.243289    0.551297    0.035879
O      1.782593    0.497632   -1.076364
O      1.450138    1.411404    0.900890
H     -1.876553   -0.808268    0.139621
H     -1.147292    0.144934   -1.164053
H     -1.414230    0.878631    0.423545
H      0.285795   -0.686580    1.441138
H      0.555008   -1.426528   -0.159989
