27

C     -4.688768   -0.223937    0.012304
C     -3.364644   -0.090698   -0.722850
C     -2.179847   -0.160516    0.240267
C     -0.849882   -0.026092   -0.503168
C      0.335863   -0.095948    0.460616
C      1.666341    0.038658   -0.282897
C      2.851228   -0.031960    0.682459
C      4.157858    0.087150   -0.048153
C      5.039077    1.076250    0.146111
H     -5.522112   -0.171309   -0.695283
H     -4.750377   -1.181531    0.539138
H     -4.813575    0.580124    0.744592
H     -3.348575    0.862089   -1.264739
H     -3.285724   -0.889853   -1.469059
H     -2.265834    0.638283    0.986991
H     -2.202975   -1.113580    0.782675
H     -0.826865    0.927052   -1.045375
H     -0.764020   -0.825019   -1.249723
H      0.312995   -1.049169    1.002689
H      0.249800    0.702989    1.207137
H      1.748864   -0.759036   -1.032069
H      1.687476    0.991949   -0.826184
H      2.757969    0.756331    1.439482
H      2.838950   -0.989419    1.216869
H      4.391475   -0.693060   -0.770001
H      4.854025    1.874773    0.857827
H      5.971277    1.106310   -0.409657
