22

C     -3.589931    0.526201   -0.209701
C     -2.377890   -0.356663    0.041336
C     -1.073002    0.400826   -0.203003
C      0.143724   -0.490727    0.050593
C      1.449247    0.266825   -0.193773
C      2.662538   -0.622166    0.059096
C      3.968741    0.098109   -0.174051
O      4.068758    1.268021   -0.527780
H     -3.586203    1.395942    0.455033
H     -4.511842   -0.035388   -0.029119
H     -3.607179    0.884004   -1.244117
H     -2.407964   -0.723454    1.073936
H     -2.428828   -1.232576   -0.615844
H     -1.029005    1.278192    0.453783
H     -1.049869    0.769094   -1.235921
H      0.120501   -0.858745    1.083575
H      0.099634   -1.367919   -0.606384
H      1.493963    1.147060    0.459675
H      1.473156    0.639322   -1.225510
H      2.644028   -1.493072   -0.604921
H      2.665005   -0.981222    1.093895
H      4.872417   -0.511665   -0.001484
