24

C      2.267882    1.816311   -1.275309
O      1.060507    1.084892   -1.113017
C      1.060880    0.332349    0.111285
C     -0.239528   -0.517962    0.322164
O     -0.224508   -1.678809   -0.525460
C     -0.286872   -1.397592   -1.913876
O     -1.449344    0.221571    0.112249
C     -1.543355    1.429294    0.848284
O     -0.168319   -0.972551    1.691086
C     -1.208862   -1.880716    2.026244
H      3.124517    1.136984   -1.319338
H      2.211667    2.368346   -2.217257
H      2.395152    2.532385   -0.457810
H      1.927780   -0.340856    0.115498
H      1.182898    1.032637    0.947141
H     -1.057868   -0.660369   -2.154414
H     -0.537306   -2.328208   -2.431781
H      0.688337   -1.073249   -2.285181
H     -1.359761    1.267344    1.914326
H     -2.560486    1.815020    0.733901
H     -0.857345    2.184007    0.455030
H     -2.195468   -1.441706    1.852599
H     -1.107287   -2.817976    1.471601
H     -1.123308   -2.111145    3.092032
