13

C     -2.533125    0.148456   -0.360473
O     -1.348648    0.546898    0.298933
S      0.033732   -0.175152   -0.160514
O     -0.050242   -1.573843    0.206641
O      0.310927    0.220228   -1.526174
O      1.141506    0.528690    0.799102
C      2.483008    0.111778    0.647060
H     -2.466287    0.358681   -1.431918
H     -2.723061   -0.916822   -0.199964
H     -3.369904    0.717062    0.053824
H      2.581245   -0.955607    0.865450
H      2.838020    0.319897   -0.366502
H      3.102829    0.669733    1.353928
