24

C      3.587747    0.230468   -0.036239
O      2.382714   -0.020133    0.687934
C      1.353243   -0.472115   -0.085720
O      1.425247   -0.669968   -1.290377
C      0.121961   -0.714800    0.778843
C     -0.971312   -1.487160    0.025860
C     -1.751679   -0.627502   -0.969078
C     -2.278652    0.651130   -0.328900
C     -1.160727    1.442130    0.339986
C     -0.414908    0.594805    1.368464
H      3.959289   -0.692181   -0.492903
H      3.425722    1.002344   -0.795137
H      4.338616    0.593229    0.671093
H      0.462722   -1.360719    1.599783
H     -0.541007   -2.348235   -0.499545
H     -1.678938   -1.892424    0.760969
H     -2.589851   -1.207545   -1.372246
H     -1.113241   -0.369213   -1.821672
H     -3.044557    0.399002    0.414838
H     -2.765262    1.271094   -1.090267
H     -0.459250    1.805042   -0.420946
H     -1.581753    2.326686    0.831368
H     -1.101306    0.355027    2.190853
H      0.395180    1.191036    1.804054
