14

C     -1.930103    0.124466   -0.252285
C     -0.604042   -0.264152    0.388639
C      0.619009    0.267042   -0.367977
C      1.912342   -0.275196    0.228669
Cl     0.670494    2.055495   -0.331214
H     -1.970595   -0.200797   -1.296692
H     -2.095269    1.205293   -0.219880
H     -2.758021   -0.352704    0.282093
H     -0.553598   -1.359619    0.423935
H     -0.590516    0.083694    1.428989
H      0.560748   -0.024816   -1.422085
H      1.929463   -1.369367    0.182909
H      2.025564    0.018688    1.278042
H      2.784523    0.091973   -0.323143
