23

C      4.150973   -0.658067    1.429696
C      3.052599    0.198038    0.830093
O      2.071015   -0.672949    0.253169
C      1.015956   -0.025577   -0.323389
O      0.885517    1.188784   -0.369594
C      0.071859   -1.032007   -0.898414
C     -1.183873   -0.415591   -1.423570
O     -1.461989   -0.333907   -2.613106
O     -1.981517   -0.000795   -0.400572
C     -3.196404    0.631600   -0.821391
C     -3.953635    1.071949    0.416144
H      4.609170   -1.290509    0.662121
H      4.926837   -0.035545    1.883977
H      3.743414   -1.328844    2.193276
H      3.471829    0.847615    0.053617
H      2.589904    0.808627    1.613509
H      0.571430   -1.550322   -1.723956
H     -0.197152   -1.774027   -0.139137
H     -2.964416    1.503695   -1.443019
H     -3.802999   -0.079470   -1.393203
H     -4.892962    1.561933    0.145146
H     -4.174984    0.213251    1.058592
H     -3.350573    1.766766    1.010008
