26

C      0.367360   -1.623540    0.779756
C      1.716503   -1.970178    0.889575
C      2.697677   -1.102570    0.421338
C      2.339904    0.119149   -0.160556
C      0.981536    0.459541   -0.266788
C     -0.026050   -0.404477    0.200533
C     -1.451341   -0.047157    0.082030
C     -2.372716   -0.942407   -0.493812
C     -3.725085   -0.606640   -0.608182
C     -4.168658    0.627145   -0.147846
C     -3.289244    1.532928    0.423328
C     -1.944352    1.190952    0.532820
F     -1.113940    2.081519    1.097677
F     -5.464648    0.944831   -0.259315
C      3.398338    1.027478   -0.653317
O      4.593444    0.794993   -0.574416
O      2.932010    2.154881   -1.213762
O      3.992897   -1.522180    0.569324
H     -0.379052   -2.315081    1.167111
H      2.001473   -2.915443    1.344663
H      0.699977    1.408577   -0.720709
H     -2.038684   -1.907847   -0.870443
H     -4.431958   -1.298959   -1.055740
H     -3.642245    2.492630    0.781602
H      3.733335    2.650911   -1.483196
H      4.593517   -0.829057    0.218326
