22

C      3.509160   -0.249838   -0.440677
C      2.733628   -1.402570   -0.347083
C      1.354548   -1.303407   -0.142915
C      0.726490   -0.051723   -0.029961
C      1.527739    1.098200   -0.127970
C      2.907131    1.000970   -0.330946
C     -0.726491    0.051723    0.184496
C     -1.530894    0.826949   -0.667493
C     -2.910288    0.925261   -0.465049
C     -3.509160    0.249838    0.595214
C     -2.730470   -0.523661    1.452151
C     -1.351393   -0.621743    1.247449
H      4.581591   -0.326190   -0.598964
H      3.199259   -2.380581   -0.435364
H      0.765176   -2.216281   -0.084176
H      1.078893    2.084991   -0.033470
H      3.509406    1.902951   -0.400286
H     -1.084529    1.353442   -1.508750
H     -3.515028    1.527425   -1.137954
H     -4.581590    0.326192    0.753504
H     -3.193636   -1.049793    2.282679
H     -0.759541   -1.222152    1.935467
