9

C     -1.346267    0.059709    0.221738
S     -0.227835    0.266491   -1.184222
C      1.336269   -0.048015   -0.332732
H     -2.375714    0.217820   -0.110504
H     -1.116770    0.790457    1.001625
H     -1.263872   -0.951591    0.628394
H      2.158952    0.035720   -1.047803
H      1.344068   -1.056319    0.089342
H      1.491169    0.685729    0.462573
