16

C     -1.275524   -0.550201    0.194159
C     -0.876902    0.896745    0.486295
C      0.458556    1.119154   -0.219383
C      1.063129   -0.272991   -0.322408
C     -0.140922   -1.147335   -0.636898
O      1.618998   -0.665284    0.926520
H     -2.229351   -0.608594   -0.340132
H     -1.393531   -1.100677    1.134661
H     -0.764590    1.038652    1.567552
H     -1.634620    1.606959    0.140272
H      1.087223    1.820469    0.337586
H      0.279862    1.527211   -1.221114
H      1.840327   -0.343969   -1.088705
H      0.018808   -2.200922   -0.387843
H     -0.391732   -1.073186   -1.701605
H      2.340268   -0.046028    1.131044
