42

C     -2.780708   -1.703436   -1.767499
C     -1.757836   -0.678971   -2.236843
C     -1.726219    0.574347   -1.358470
N     -1.171434    0.281823   -0.018227
C     -1.869035    0.916983    1.122511
C     -3.131302    0.126951    1.477659
C     -3.838408    0.723814    2.684007
C      0.228997    0.261918    0.100390
C      0.889410   -0.945159    0.423688
C      2.286599   -1.077160    0.509511
C      3.080489    0.040888    0.272421
C      2.494000    1.274786   -0.001170
C      1.090176    1.366545   -0.077183
N      0.569960    2.693552   -0.335039
O      0.716527    3.132710   -1.483537
O      0.070372    3.302822    0.618320
S      4.848876   -0.087857    0.415407
O      5.115830   -1.176501    1.333364
O      5.347655    1.248461    0.670941
C      5.364595   -0.578685   -1.209130
N      0.119369   -2.144864    0.686521
O      0.145341   -3.021217   -0.189144
O     -0.429493   -2.234263    1.792417
H     -2.558761   -2.063469   -0.759344
H     -2.783951   -2.567143   -2.439906
H     -3.788270   -1.275408   -1.763469
H     -0.767265   -1.144075   -2.285835
H     -2.016855   -0.380273   -3.259731
H     -2.745626    0.970025   -1.272423
H     -1.148905    1.348345   -1.871505
H     -2.137922    1.950688    0.875371
H     -1.218555    0.948768    2.006736
H     -2.874552   -0.916692    1.690674
H     -3.825187    0.113261    0.629845
H     -4.738360    0.147116    2.919398
H     -4.138711    1.758453    2.490040
H     -3.188550    0.713185    3.564841
H      2.733874   -2.036661    0.768331
H      3.110508    2.163185   -0.141325
H      4.906153   -1.538600   -1.454043
H      5.064953    0.189087   -1.924936
H      6.452221   -0.677277   -1.203633
