22

C      3.797106    0.294956   -0.121718
C      2.532915   -0.069424    0.639344
C      1.282969    0.183252   -0.198598
C      0.001959   -0.173273    0.539633
O      0.006956   -0.615332    1.687376
C     -1.285649    0.053768   -0.237286
C     -2.528461   -0.324571    0.563108
C     -3.799446   -0.087992   -0.236139
H      4.679890    0.106091    0.497096
H      3.889681   -0.299753   -1.036097
H      3.796714    1.354010   -0.398737
H      2.487049    0.515709    1.565610
H      2.579272   -1.124823    0.933350
H      1.227777    1.241829   -0.475887
H      1.320987   -0.416272   -1.114919
H     -1.235652   -0.545151   -1.153428
H     -1.328863    1.112949   -0.514393
H     -2.477281   -1.379726    0.857187
H     -2.569507    0.260805    1.489448
H     -4.676956   -0.365596    0.356161
H     -3.897216    0.966154   -0.514624
H     -3.804246   -0.687608   -1.151985
