16

C      1.255620   -0.589882    0.337343
C      1.099087    0.911126    0.014208
N     -0.028370    1.184055   -0.891963
C     -1.255621    0.589883   -0.337336
C     -1.099086   -0.911127   -0.014213
N      0.028367   -1.184056    0.891959
H      2.065761   -0.717168    1.063579
H      1.548138   -1.133700   -0.569850
H      0.965824    1.476670    0.945177
H      2.020522    1.274646   -0.453509
H     -0.153794    2.191782   -0.972710
H     -2.065768    0.717176   -1.063564
H     -1.548127    1.133694    0.569866
H     -0.965822   -1.476663   -0.945189
H     -2.020523   -1.274651    0.453496
H      0.153792   -2.191784    0.972705
