20

C     -2.486974   -0.468022   -0.556031
C     -1.194915   -0.849860    0.152939
C      0.018124    0.013678   -0.252025
C     -0.179236    1.481162    0.140123
C      1.292485   -0.577689    0.386290
C      2.580409    0.086449   -0.080643
H     -3.272601   -1.192277   -0.317054
H     -2.843761    0.516980   -0.242258
H     -2.352711   -0.460998   -1.642200
H     -0.981358   -1.900220   -0.081755
H     -1.350457   -0.795092    1.237409
H      0.126020   -0.036652   -1.343433
H     -0.292679    1.588601    1.224056
H     -1.066312    1.906786   -0.338276
H      0.668420    2.096600   -0.175535
H      1.230621   -0.512671    1.479548
H      1.355941   -1.644474    0.137515
H      2.649752    0.086369   -1.172903
H      2.653830    1.118524    0.273489
H      3.445403   -0.457195    0.313184
