21

C     -0.849971    2.776036   -0.113819
C     -0.415053    1.343766   -0.015357
C     -1.355827    0.310296   -0.105037
C     -0.956101   -1.030538   -0.045542
C      0.406151   -1.332334    0.074238
C      1.361364   -0.312325    0.165387
C      0.942801    1.022671    0.104177
C      2.820800   -0.646095    0.259670
C     -1.967987   -2.130203   -0.176191
H     -0.177448    3.428446    0.453014
H     -1.855038    2.908539    0.300317
H     -0.853480    3.094820   -1.160660
H     -2.410137    0.552070   -0.224734
H      0.726575   -2.372176    0.094416
H      1.681931    1.820256    0.147714
H      2.971866   -1.591411    0.791443
H      3.250618   -0.731292   -0.743081
H      3.363524    0.127325    0.813293
H     -2.933518   -1.824213    0.240157
H     -1.647586   -3.023042    0.370990
H     -2.103485   -2.390596   -1.230396
