12

C     -0.655071   -1.211945   -0.021804
C      0.678068   -1.207229   -0.042615
C      1.405022    0.082508   -0.019880
O      2.628636    0.152432   -0.037247
N      0.606602    1.199460    0.022237
C     -0.762420    1.200095    0.043751
O     -1.418903    2.234228    0.081437
N     -1.356816   -0.036176    0.020353
F      1.405859   -2.337643   -0.083975
H     -1.226748   -2.132817   -0.037211
H      1.067036    2.096158    0.038741
H     -2.371264   -0.039071    0.036212
