22

C     -3.695044    0.310784   -0.688879
C     -2.444458   -0.531734   -0.489674
C     -1.188182    0.338703   -0.439915
N     -0.009327   -0.508187   -0.257657
C      1.212878    0.293379   -0.195628
C      2.420040   -0.623559    0.005242
C      3.715704    0.170895    0.065096
H     -3.645321    0.870783   -1.628171
H     -3.821671    1.024834    0.131147
H     -4.582075   -0.329551   -0.721767
H     -2.544582   -1.103731    0.440834
H     -2.367613   -1.256576   -1.309276
H     -1.272261    1.055904    0.385465
H     -1.101267    0.904757   -1.374942
H     -0.106829   -1.051380    0.599892
H      1.155795    1.010069    0.632501
H      1.337192    0.858730   -1.126848
H      2.309341   -1.195359    0.934672
H      2.482754   -1.348132   -0.815800
H      3.877054    0.728793   -0.862836
H      3.701229    0.882823    0.896536
H      4.566644   -0.502247    0.209024
