9

C     -0.979641    0.282650    0.103912
C      0.393831   -0.353695    0.100780
O      1.284062    0.471136   -0.635968
H     -1.692063   -0.328829    0.664644
H     -0.941307    1.281067    0.552013
H     -1.349427    0.407431   -0.919214
H      0.358342   -1.341321   -0.368683
H      0.771960   -0.455917    1.122361
H      2.154242    0.037477   -0.619845
