22

C      2.072852   -1.080049    1.521661
C      1.016361   -0.537122    0.792946
C      1.252503    0.461562   -0.150521
C      2.547229    0.926183   -0.373636
C      3.611856    0.385946    0.353918
C      3.374330   -0.618610    1.302919
Cl     4.643667   -1.328636    2.235486
Cl     5.194514    1.000997    0.034652
O      0.241902    1.023046   -0.889218
C     -1.016362    0.537121   -0.638417
C     -2.072852    1.080041   -1.367134
C     -3.374329    0.618598   -1.148388
C     -3.611857   -0.385955   -0.199385
C     -2.547227   -0.926187    0.528167
C     -1.252504   -0.461559    0.305052
O     -0.241905   -1.023035    1.043756
Cl    -5.194517   -1.000998    0.119888
Cl    -4.643668    1.328635   -2.080939
H      1.878701   -1.858363    2.255119
H      2.721315    1.705182   -1.111390
H     -1.878704    1.858374   -2.100573
H     -2.721302   -1.705172    1.265939
