29

C      4.282398   -0.324682    0.699057
C      3.033774   -0.912845    0.118683
O      2.580786   -2.011622    0.408784
O      2.488789   -0.057546   -0.791401
C      1.246843   -0.499476   -1.367404
C      0.068434   -0.268324   -0.410760
C     -1.202089   -0.905353   -0.979564
O     -2.253136   -0.794231   -0.002819
C     -3.448329   -1.297914   -0.413051
O     -3.664206   -1.805879   -1.504033
C     -4.471784   -1.140537    0.668963
O     -0.175825    1.158357   -0.302468
C      0.452513    1.808263    0.713776
O      1.202786    1.301780    1.535237
C      0.093020    3.262339    0.684790
H      5.042291   -0.228227   -0.080169
H      4.662934   -0.985259    1.483322
H      4.063623    0.648679    1.145246
H      1.330047   -1.550488   -1.669481
H      1.109528    0.091104   -2.280284
H      0.259425   -0.683304    0.585598
H     -1.511544   -0.381683   -1.892324
H     -1.031012   -1.966527   -1.194525
H     -4.157275   -1.690485    1.559459
H     -5.426937   -1.548771    0.326406
H     -4.608242   -0.080835    0.898692
H     -0.986551    3.379873    0.807834
H      0.424454    3.707143   -0.256832
H      0.595285    3.776448    1.509272
