8

C      0.784748   -0.085891    0.116355
C     -0.754643    0.020813   -0.020315
Cl    -1.499967   -1.619588   -0.161494
Cl    -1.477407    0.775444    1.454305
Cl    -1.269814    0.987047   -1.445329
Cl     1.575155   -0.899533   -1.281063
Cl     1.597796    1.504145    0.340569
H      1.044132   -0.682438    0.996972
