18

C      2.587473   -0.744301    0.503596
O      1.700813    0.339973    0.261985
C      0.384697    0.021030    0.021443
C     -0.096520   -1.269228   -0.220990
C     -1.458144   -1.478292   -0.454787
C     -2.344497   -0.404167   -0.437610
C     -1.869890    0.886029   -0.201194
C     -0.503446    1.116193   -0.013344
N     -0.060887    2.406949    0.342687
H      2.241768   -1.365249    1.336890
H      3.559082   -0.325182    0.782560
H      2.731873   -1.341335   -0.402629
H      0.560408   -2.131746   -0.234292
H     -1.828600   -2.483703   -0.638330
H     -3.406672   -0.570771   -0.595738
H     -2.573461    1.712602   -0.157560
H      0.948542    2.479339    0.222916
H     -0.572540    3.151861   -0.115601
