13

C      1.624515   -0.234007    0.191842
C      0.687673   -1.217695    0.513430
C     -0.674795   -0.972542    0.333642
C     -1.086993    0.258906   -0.167902
C     -0.160218    1.243884   -0.490616
C      1.200534    0.996933   -0.310241
O     -2.407254    0.541615   -0.359568
H      2.685094   -0.426386    0.332391
H      1.020855   -2.175588    0.904345
H     -1.391873   -1.746220    0.587804
H     -0.496748    2.199869   -0.881002
H      1.928545    1.763668   -0.561041
H     -2.929335   -0.232436   -0.093083
