9

C     -0.969665   -0.270188   -0.010623
C      0.305600    0.544019    0.124719
C      1.490838   -0.271597   -0.165382
N      2.429154   -0.914669   -0.394351
H     -0.972959   -1.118508    0.682530
H     -1.843253    0.351801    0.208708
H     -1.080155   -0.666630   -1.025879
H      0.266844    1.397889   -0.560526
H      0.373595    0.947884    1.140803
