11

C     -1.306352   -0.179333    0.287065
C     -0.036358    0.571589   -0.079064
C      1.150748   -0.370097   -0.173143
Br     2.751743    0.632715   -0.643177
H     -1.544506   -0.937603   -0.465758
H     -2.151459    0.513261    0.350690
H     -1.201803   -0.677621    1.256195
H      0.151991    1.346439    0.673850
H     -0.187969    1.088535   -1.034327
H      1.014542   -1.124761   -0.952618
H      1.359423   -0.863124    0.780287
