11

C     -1.209565   -0.319234   -0.361978
C     -0.092778    0.098152    0.588539
C      1.265269    0.239440   -0.096713
Cl     1.865736   -1.321636   -0.716311
Cl    -0.532751    1.673102    1.330705
H     -1.305943    0.381630   -1.198540
H     -2.172763   -0.357550    0.158971
H     -1.028367   -1.315438   -0.777270
H     -0.026646   -0.619889    1.412952
H      2.020551    0.610188    0.603722
H      1.217257    0.931234   -0.944076
