13

C     -1.450426   -0.794483   -0.168330
C     -1.584969    0.590977   -0.069700
C     -0.453182    1.396948    0.076217
C      0.814679    0.812696    0.123239
C      0.943443   -0.574877    0.024024
C     -0.184222   -1.378102   -0.121374
O      2.152355   -1.211855    0.062605
I      2.484054    2.044991    0.341858
H     -2.331653   -1.420948   -0.281857
H     -2.572943    1.043713   -0.106543
H     -0.577597    2.474155    0.151454
H     -0.076083   -2.456563   -0.197901
H      2.836546   -0.526650    0.166309
