12

C      0.139725    1.205375   -0.007916
C     -1.242128    1.153550   -0.030953
N     -1.946185    0.001699   -0.033083
C     -1.244474   -1.151380   -0.011318
C      0.137271   -1.205617    0.012623
C      0.838165   -0.000732    0.014248
C      2.270092   -0.001982    0.038591
N      3.430256   -0.002994    0.058314
H      0.652020    2.162080   -0.007379
H     -1.839084    2.061446   -0.048845
H     -1.843276   -2.058232   -0.013752
H      0.647618   -2.163215    0.029469
