12

C     -1.061895   -0.901090   -0.169283
C     -0.056237    0.191969    0.050130
C     -0.422273    1.441460    0.376419
C      1.383889   -0.198060   -0.117746
H     -0.892228   -1.720437    0.536759
H     -2.089530   -0.548687   -0.031224
H     -0.978076   -1.295405   -1.187173
H      0.311666    2.226244    0.533358
H     -1.466298    1.715176    0.495893
H      2.061462    0.644498    0.056245
H      1.647684   -0.990351    0.590278
H      1.561836   -0.565316   -1.133654
