22

C     -3.571993   -0.467119   -0.109563
C     -2.779035   -1.409351    0.545749
C     -1.389816   -1.246797    0.595248
C     -0.770445   -0.136486   -0.012909
C     -1.588763    0.803725   -0.666855
C     -2.973688    0.635391   -0.712352
Cl    -3.947975    1.799808   -1.520339
C      0.683327    0.076347    0.009867
C      1.528341   -0.639424   -0.848955
C      2.914373   -0.437471   -0.827697
C      3.484690    0.490636    0.054154
C      2.642643    1.211362    0.912111
C      1.257066    1.005859    0.887426
Cl     3.242352    2.382649    2.036584
Cl     5.200762    0.745283    0.080986
Cl     3.861753   -1.376261   -1.930839
Cl    -0.474673   -2.448045    1.439705
H     -4.650672   -0.598535   -0.144399
H     -3.249509   -2.268432    1.018864
H     -1.141128    1.671786   -1.148131
H      1.103228   -1.366532   -1.540156
H      0.619164    1.571605    1.565713
