23

C      2.682806    1.051879    0.349114
C      1.436686    0.460529   -0.294272
C      0.556495   -0.240395    0.744060
C     -0.728395   -0.888150    0.187029
C     -0.403572   -2.067005   -0.736507
C     -1.677042    0.089102   -0.532157
C     -2.133962    1.250366    0.338910
H      3.299494    1.548906   -0.406301
H      3.288119    0.272000    0.822096
H      2.417425    1.791619    1.111165
H      0.881714    1.266977   -0.784571
H      1.745604   -0.245208   -1.072307
H      1.149096   -1.017242    1.245210
H      0.286222    0.476939    1.528744
H     -1.270702   -1.301035    1.048860
H      0.269940   -2.775963   -0.243749
H     -1.317445   -2.609195   -1.002932
H      0.067986   -1.736351   -1.667273
H     -1.209501    0.481716   -1.442528
H     -2.568673   -0.461183   -0.858908
H     -2.581681    0.890504    1.270564
H     -2.886571    1.842925   -0.191281
H     -1.304042    1.918265    0.587034
