15

C     -2.102024    0.212379   -0.028065
C     -1.286996    1.338499   -0.128522
C      0.101807    1.199108   -0.115242
C      0.689558   -0.071212   -0.007819
C     -0.143092   -1.196118    0.101637
C     -1.531613   -1.053971    0.088108
C      2.189963   -0.221228    0.029641
F      2.622933   -1.408233   -0.481275
F      2.686050   -0.157273    1.296199
F      2.843044    0.744565   -0.676196
H     -3.183672    0.322074   -0.037982
H     -1.733793    2.325992   -0.215685
H      0.727178    2.087562   -0.190996
H      0.289714   -2.191043    0.196415
H     -2.169057   -1.931103    0.169782
