14

C      0.822506    1.482067   -0.177736
C     -0.530664    1.136451   -0.124572
C     -0.925232   -0.198554    0.009903
C      0.058310   -1.173724    0.193055
C      1.409994   -0.829255    0.140130
C      1.797120    0.494255   -0.054375
Cl     2.610238   -2.048907    0.330666
N     -2.277307   -0.517896    0.181364
H      1.112882    2.522154   -0.301037
H     -1.278498    1.922957   -0.189712
H     -0.225985   -2.205715    0.376851
H      2.849115    0.762835   -0.091010
H     -2.916253    0.136771   -0.259192
H     -2.506223   -1.483440   -0.034336
