12

C      0.861910    1.126842    0.013878
C      1.426822   -0.144561    0.005322
C      0.618461   -1.276829   -0.008356
C     -0.773058   -1.136602   -0.013558
C     -1.361580    0.137951   -0.005079
C     -0.529457    1.268568    0.008699
Cl    -1.154678    2.882251    0.019989
Cl    -3.087652    0.312832   -0.011523
Cl    -1.709132   -2.592100   -0.030672
Cl     3.137539   -0.317886    0.011707
H      1.501822    2.006479    0.024560
H      1.069002   -2.266946   -0.014967
