17

C     -2.671451   -0.477128   -0.002955
C     -1.690021    0.520770    0.554000
O     -2.075881    1.526162    1.147414
C     -0.227780    0.273793    0.376120
C      0.675617    1.209622    0.898828
C      2.051474    1.020029    0.756329
C      2.533686   -0.105233    0.090985
C      1.642384   -1.041164   -0.432066
C      0.264018   -0.854907   -0.291447
H     -2.528965   -1.452825    0.468677
H     -3.689586   -0.140491    0.216610
H     -2.565527   -0.547734   -1.088551
H      0.310563    2.092679    1.420648
H      2.744444    1.751339    1.165109
H      3.605324   -0.252669   -0.019868
H      2.022242   -1.918327   -0.950807
H     -0.400541   -1.603915   -0.711180
