8

C     -0.783499    0.064636   -0.075337
C      0.697364   -0.209121    0.083620
Cl     1.623060    1.304960   -0.001165
H     -1.151836    0.725283    0.716409
H     -1.347944   -0.871681   -0.022208
H     -0.998667    0.533209   -1.041324
H      1.057448   -0.869808   -0.710037
H      0.904075   -0.677477    1.050042
