13

C      1.403067   -0.005992    0.049626
C     -0.045501   -0.136709   -0.397331
C     -0.916777   -0.869297    0.612323
N     -0.612361    1.247374   -0.610840
O     -0.992345    1.521869   -1.756283
O     -0.659727    2.009861    0.363721
H      1.489469    0.505394    1.014929
H      1.861736   -0.994898    0.154524
H      1.990761    0.561488   -0.680532
H     -0.090447   -0.647472   -1.366255
H     -0.901478   -0.384372    1.594873
H     -0.567042   -1.898742    0.743643
H     -1.959356   -0.908505    0.277601
