14

C     -1.532684    0.175058    0.250143
C     -0.054850    0.557412    0.224397
C      0.863933   -0.661406    0.336177
O      2.219381   -0.203051    0.288516
O      0.221502    1.218723   -1.023050
O     -1.846666   -0.648207   -0.872567
H     -2.161446    1.068761    0.182582
H     -1.790485   -0.367725    1.164203
H      0.166957    1.271861    1.024714
H      0.704820   -1.193972    1.278480
H      0.722804   -1.346906   -0.505403
H      2.782257   -0.995864    0.346818
H      1.198216    1.284803   -1.051166
H     -1.493742   -0.159489   -1.643844
