11

C      1.356346   -0.079573    0.002396
C     -0.016327    0.571956    0.072085
C     -1.129724   -0.463576   -0.068913
I     -3.048921    0.473042    0.031767
H      2.140550    0.677013    0.105144
H      1.484040   -0.812335    0.805584
H      1.500197   -0.589946   -0.955302
H     -0.093776    1.324206   -0.722189
H     -0.109825    1.103307    1.026901
H     -1.049313   -1.212621    0.726794
H     -1.033247   -0.991472   -1.024267
