13

C      1.823424   -0.689777   -0.529873
O      0.445627   -0.419704   -0.756605
C     -0.081690    0.474370    0.232221
C     -1.556676    0.703442   -0.079183
O     -2.257133   -0.538616   -0.027441
H      2.408224    0.233499   -0.583586
H      1.964245   -1.170022    0.443188
H      2.173311   -1.371227   -1.309863
H      0.463188    1.423793    0.204276
H      0.025417    0.011361    1.219522
H     -2.008834    1.386565    0.644932
H     -1.684375    1.112833   -1.086149
H     -1.714728   -1.156519   -0.556271
