14

C      0.773112    0.068648   -0.644114
C     -0.618198   -0.575499   -0.559370
C     -1.606251    0.092995    0.391574
Cl    -1.902732    1.791586   -0.042250
C      1.491428    0.282688    0.684659
Cl     1.735282   -1.243724    1.563247
H      0.693125    1.037245   -1.152121
H      1.399582   -0.556001   -1.293930
H     -1.048306   -0.593311   -1.569123
H     -0.513084   -1.626303   -0.263716
H     -2.569382   -0.425179    0.352948
H     -1.254916    0.064839    1.426609
H      0.940314    0.964486    1.338074
H      2.480028    0.717529    0.508026
