13

C     -1.990201    0.028072   -0.261327
C     -0.616154   -0.562412   -0.092361
O     -0.306924   -1.631295   -0.618252
C      0.352183    0.218614    0.787405
O      1.675032   -0.283811    0.745328
N      2.337298    0.024495   -0.467233
O      3.469246   -0.450931   -0.526996
O      1.742899    0.755410   -1.262802
H     -2.478557    0.102894    0.713282
H     -2.590642   -0.614740   -0.910927
H     -1.909797    1.016366   -0.720584
H      0.314410    1.289019    0.552749
H      0.001209    0.108320    1.819417
