17

C     -0.022456    0.579239    0.424674
C     -1.254010   -0.180594   -0.053335
O     -2.402512    0.587189    0.295977
N     -3.612183   -0.031202   -0.104637
O     -3.524896   -1.115148   -0.683508
O     -4.605640    0.627473    0.194579
C      1.267345   -0.163378    0.096809
O      2.355724    0.619679    0.579325
N      3.612690    0.018130    0.325598
O      4.554562    0.690018    0.740062
O      3.609473   -1.066434   -0.258662
H     -0.002686    1.581658   -0.022269
H     -0.088052    0.758832    1.505616
H     -1.290115   -1.160478    0.438445
H     -1.201845   -0.309653   -1.141428
H      1.258165   -1.143077    0.590192
H      1.346436   -0.292254   -0.989681
