18

C     -2.786051    0.186528   -0.351243
C     -1.514170   -0.454011    0.181273
C     -0.266709    0.246617   -0.356311
C      1.008431   -0.399565    0.180763
C      2.255812    0.292619   -0.350089
O      3.402605   -0.353637    0.184860
H     -3.665505   -0.330034    0.045794
H     -2.848383    1.238961   -0.056566
H     -2.824782    0.132449   -1.443906
H     -1.498532   -1.512623   -0.103016
H     -1.522004   -0.412210    1.276680
H     -0.265841    0.205610   -1.452385
H     -0.289310    1.305942   -0.072794
H      1.039401   -1.462156   -0.090988
H      1.016119   -0.370614    1.277582
H      2.300572    0.233459   -1.442226
H      2.276869    1.344794   -0.048839
H      4.181476    0.107871   -0.169980
