26

C     -3.446244    0.296764   -0.564051
C     -2.360861    0.429556    0.492417
C     -1.022226   -0.118426   -0.006894
C      0.064087    0.021621    1.064512
C      1.454319   -0.516246    0.665891
C      1.435474   -2.038895    0.494745
C      2.058179    0.140172   -0.589751
C      2.204790    1.650945   -0.479631
H     -3.182062    0.851832   -1.469832
H     -4.393485    0.694158   -0.186279
H     -3.602282   -0.751912   -0.836541
H     -2.670605   -0.109305    1.395401
H     -2.252439    1.485745    0.765259
H     -1.146555   -1.171393   -0.282369
H     -0.730940    0.423898   -0.912991
H     -0.263999   -0.500936    1.972828
H      0.155215    1.077499    1.347537
H      2.127141   -0.300481    1.507371
H      0.851325   -2.342583   -0.379646
H      1.009818   -2.526613    1.377917
H      2.452886   -2.423000    0.362639
H      1.461642   -0.101790   -1.476945
H      3.054439   -0.285443   -0.765552
H      2.773975    1.926553    0.413676
H      2.737166    2.040370   -1.353458
H      1.231241    2.147909   -0.438881
