19

C     -1.895982    1.343958   -0.162592
C     -0.539627    0.700537   -0.066058
C      0.608000    1.511079   -0.068660
C      1.882419    0.948928    0.019405
C      2.012363   -0.430185    0.110603
C      0.891275   -1.252090    0.115017
C     -0.395995   -0.699456    0.027008
C     -1.590061   -1.613596    0.034119
O      3.236797   -1.024420    0.198581
H     -2.492981    1.107582    0.723835
H     -1.819993    2.434632   -0.227266
H     -2.418683    0.996667   -1.059369
H      0.514354    2.592678   -0.139839
H      2.751037    1.598964    0.015163
H      1.028117   -2.328172    0.187653
H     -1.291799   -2.664575    0.111915
H     -2.234892   -1.390285    0.889902
H     -2.160605   -1.501190   -0.893180
H      3.916255   -0.331056    0.183762
