18

C     -0.414455   -2.305220   -0.054774
C     -1.602703   -1.664277   -0.387736
C     -1.654509   -0.271442   -0.432643
C     -0.516619    0.504932   -0.141329
C      0.697903   -0.148189    0.181099
C      0.726341   -1.555068    0.229028
C      1.958391    0.627674    0.506427
F      2.176435    1.665537   -0.343083
F      1.932207    1.151797    1.760096
F      3.086129   -0.135481    0.447428
C     -0.615201    2.015545   -0.211767
F     -0.068661    2.515415   -1.351284
F      0.009765    2.636607    0.822674
F     -1.900232    2.469167   -0.187272
H     -0.374775   -3.391632   -0.016890
H     -2.491838   -2.249477   -0.611969
H     -2.595985    0.211271   -0.695529
H      1.647808   -2.077159    0.487523
