21

C      3.357049   -0.770812   -0.155407
C      2.192065    0.202354   -0.070148
C      0.850899   -0.530411   -0.045079
C     -0.318810    0.452157    0.040872
C     -1.660498   -0.282818    0.065301
C     -2.809497    0.681546    0.136614
C     -3.685053    0.732527    1.148250
H      3.296901   -1.375989   -1.065615
H      4.305924   -0.225589   -0.172099
H      3.368219   -1.445853    0.706296
H      2.299569    0.813551    0.833501
H      2.228685    0.883050   -0.928641
H      0.750134   -1.143298   -0.949119
H      0.821331   -1.212932    0.813040
H     -0.216042    1.065707    0.944962
H     -0.285157    1.136544   -0.816380
H     -1.770474   -0.886392   -0.843588
H     -1.685284   -0.977605    0.913735
H     -2.928831    1.368219   -0.699213
H     -3.611153    0.066139    2.002002
H     -4.499976    1.449905    1.141484
