27

C     -4.504732   -0.719713   -0.025391
C     -3.120609   -0.604529    0.592998
C     -2.067815   -0.242128   -0.454130
C     -0.676879   -0.127200    0.171851
C      0.375549    0.235643   -0.878052
C      1.751351    0.351527   -0.271066
C      2.201700    1.575923    0.240215
C      3.468705    1.678467    0.816783
C      4.294464    0.558338    0.891763
C      3.853426   -0.665679    0.392307
C      2.586728   -0.770095   -0.184600
H     -5.241800   -0.979437    0.740888
H     -4.809814    0.226617   -0.483343
H     -4.526875   -1.497367   -0.795520
H     -3.140891    0.158018    1.380281
H     -2.859511   -1.556458    1.069821
H     -2.335866    0.708681   -0.930751
H     -2.054468   -1.005902   -1.241231
H     -0.692230    0.633511    0.962678
H     -0.411469   -1.077185    0.652902
H      0.112456    1.182656   -1.366249
H      0.391778   -0.519271   -1.674436
H      1.566340    2.457300    0.192726
H      3.810548    2.632578    1.208935
H      5.280501    0.638776    1.341235
H      4.495413   -1.540379    0.453299
H      2.254000   -1.732693   -0.565994
