25

C     -2.774379   -0.989601   -1.054440
C     -2.064561   -0.018107   -0.143973
C     -2.774061    0.736746    0.712978
C     -0.545665    0.042433   -0.304328
C      0.130492    1.291183    0.296420
C      1.628773    1.323715   -0.026826
C      2.295987   -0.000912    0.200574
C      1.620762   -1.151955    0.352749
C      0.120370   -1.231923    0.266385
C      3.778734   -0.024885    0.277775
O      4.463005    0.981121    0.136577
H     -2.533463   -0.775266   -2.100750
H     -2.476149   -2.018145   -0.830151
H     -3.863333   -0.932854   -0.950292
H     -2.313285    1.453469    1.384079
H     -3.856115    0.657306    0.774692
H     -0.345361    0.075754   -1.385972
H      0.005980    1.299934    1.387612
H     -0.335322    2.206543   -0.088756
H      2.096884    2.099822    0.590204
H      1.770022    1.613791   -1.075308
H      2.139121   -2.088967    0.542230
H     -0.137731   -2.090196   -0.365971
H     -0.266571   -1.448399    1.270402
H      4.235865   -1.010606    0.467210
