24

C     -1.971857    0.544498    0.847032
C     -1.601799    0.276728   -0.614081
C     -2.850590   -0.143499   -1.393150
C     -0.515179   -0.808406   -0.745404
C      0.828925   -0.396021   -0.193870
C      1.618111    0.542703   -0.872584
C      2.858619    0.927311   -0.361352
C      3.322509    0.377582    0.832055
C      2.546760   -0.557273    1.514774
C      1.305963   -0.943177    1.004744
H     -1.118953    0.939137    1.407930
H     -2.776115    1.285224    0.913333
H     -2.313673   -0.369603    1.344344
H     -1.237053    1.215440   -1.050051
H     -3.625014    0.628612   -1.333386
H     -2.615287   -0.297156   -2.451626
H     -3.270115   -1.075699   -0.999623
H     -0.850424   -1.733634   -0.258400
H     -0.374973   -1.067389   -1.803556
H      1.269631    0.979297   -1.805750
H      3.462906    1.656022   -0.894977
H      4.288217    0.677424    1.229843
H      2.907516   -0.986308    2.445785
H      0.711874   -1.671813    1.551411
