35

C      0.549312    1.860645    2.066443
C     -0.370935    1.013842    1.250859
C     -1.709782    1.302202    1.071183
N     -2.525830    0.524610    0.323834
C     -2.022021   -0.562208   -0.286306
N     -0.733375   -0.902730   -0.181333
C      0.057149   -0.093970    0.545608
O      1.381945   -0.523921    0.655407
C      2.207896    0.103948   -0.261902
O      1.870180    1.038485   -0.983681
N      3.498486   -0.423349   -0.258688
C      3.823269   -1.659870    0.431224
C      4.426062    0.018469   -1.282077
N     -2.880101   -1.377461   -1.030642
C     -2.203489   -2.205092   -2.016399
C     -4.102279   -0.717327   -1.460407
C     -2.358249    2.496733    1.707363
H      0.048736    2.244286    2.961054
H      0.908970    2.706113    1.471792
H      1.414574    1.292144    2.422420
H      4.876053   -1.643112    0.727735
H      3.645155   -2.496694   -0.250493
H      3.213798   -1.795033    1.328036
H      5.438229    0.037012   -0.867864
H      4.177560    1.019542   -1.644936
H      4.383589   -0.683248   -2.120429
H     -2.929129   -2.831133   -2.548204
H     -1.680474   -1.595379   -2.762542
H     -1.490524   -2.893046   -1.547373
H     -4.699551   -0.375155   -0.607308
H     -3.889990    0.133607   -2.118314
H     -4.735742   -1.417588   -2.016886
H     -1.825707    3.413524    1.435807
H     -2.368874    2.388964    2.796249
H     -3.394910    2.602191    1.370051
