16

C      1.951245   -1.031992    0.147274
C      2.182221    0.357817    0.062730
C      1.116877    1.258398   -0.040418
C     -0.156850    0.726131   -0.055220
C     -0.383556   -0.637989    0.027762
C      0.650693   -1.546692    0.130222
C     -1.830556   -0.845385   -0.015846
O     -2.391170   -1.921096    0.034393
N     -2.392107    0.390157   -0.121532
C     -1.460358    1.382139   -0.151352
O     -1.643269    2.579120   -0.239366
H      2.798541   -1.711230    0.226812
H      3.204605    0.732107    0.078183
H      1.279906    2.329177   -0.106154
H      0.458600   -2.612730    0.194480
H     -3.384821    0.552069   -0.171969
