24

C     -1.458458    1.913915    0.019755
C     -0.389269    0.940070    0.517131
C      0.906296    1.104357   -0.292821
C      2.004197    0.164842    0.199220
C      1.542974   -1.288048    0.230358
C      0.254134   -1.451761    1.032845
C     -0.877014   -0.529328    0.544826
C     -1.442394   -1.021570   -0.793056
H     -1.667167    1.781138   -1.046570
H     -1.129175    2.948833    0.163337
H     -2.393610    1.782300    0.573784
H     -0.163402    1.222207    1.555601
H      1.262858    2.138840   -0.216413
H      0.717095    0.918350   -1.356927
H      2.885398    0.258274   -0.445540
H      2.314938    0.468009    1.206802
H      2.329367   -1.911087    0.671740
H      1.394880   -1.649365   -0.793910
H     -0.068260   -2.499272    1.000289
H      0.464192   -1.225826    2.086461
H     -1.693604   -0.600023    1.276283
H     -1.721463   -2.078913   -0.726764
H     -2.347408   -0.469199   -1.064702
H     -0.725106   -0.916743   -1.611954
