26

C      3.999879   -0.574313    0.896620
N      2.673256   -0.155452    0.479346
C      2.605767    1.076386   -0.295065
C      1.625930   -1.066494    0.609269
O      1.784475   -2.237155    0.949364
C      0.239813   -0.614928    0.345947
C     -0.278738    0.517533    0.979572
C     -1.598273    0.901992    0.731860
C     -2.410463    0.154938   -0.128308
C     -1.894277   -0.990849   -0.738028
C     -0.572626   -1.380518   -0.495110
O     -3.678270    0.644768   -0.281136
C     -4.559362   -0.099362   -1.113406
H      3.953173   -1.393988    1.618997
H      4.556600   -0.906964    0.015546
H      4.514022    0.273222    1.359329
H      1.644182    1.211191   -0.792208
H      3.379739    1.048150   -1.068743
H      2.796550    1.919102    0.375260
H      0.331581    1.092550    1.670383
H     -2.003285    1.785171    1.220536
H     -2.492611   -1.607185   -1.400724
H     -0.177746   -2.282650   -0.957408
H     -4.719840   -1.107595   -0.717388
H     -5.526001    0.413476   -1.119573
H     -4.193477   -0.132385   -2.144931
