21

C      2.812348   -0.430381    0.080322
C      1.347943   -0.851386    0.123485
C      0.403453    0.355091    0.212450
C     -1.066775   -0.058870    0.455336
C     -1.667744   -0.856745   -0.705743
C     -1.945472    1.166514    0.731504
O      0.524764    1.109147   -0.992065
H      3.081511    0.142539    0.973384
H      3.024912    0.183707   -0.800313
H      3.457045   -1.314039    0.037913
H      1.143147   -1.430320   -0.784171
H      1.195358   -1.510867    0.985340
H      0.735638    0.996778    1.038260
H     -1.098459   -0.690254    1.352888
H     -1.126783   -1.793802   -0.867344
H     -2.710501   -1.118192   -0.494330
H     -1.649989   -0.285803   -1.639899
H     -1.537464    1.760728    1.555819
H     -2.957554    0.857784    1.015241
H     -2.030158    1.813420   -0.147672
H      0.064781    1.954951   -0.860916
