33

C      4.075381    2.001991    0.742867
C      3.086959    1.054569    0.117235
C      3.542872    0.164944   -0.866290
C      2.670655   -0.735610   -1.467164
C      1.329781   -0.760484   -1.091073
C      0.833020    0.119351   -0.118921
C      1.716787    1.055232    0.476648
C      1.202412    2.013559    1.525340
N     -0.526202    0.090147    0.280046
C     -1.667181   -0.440519   -0.368578
C     -1.802080   -0.328489   -1.763718
C     -2.916446   -0.840213   -2.432793
C     -3.928854   -1.468945   -1.717395
C     -3.832240   -1.576591   -0.330544
C     -2.714027   -1.062074    0.350966
C     -2.637176   -1.170791    1.832955
O     -1.770948   -0.686230    2.541176
O     -3.645424   -1.882552    2.369985
H      5.105104    1.744303    0.472304
H      3.885633    3.024759    0.402603
H      4.012018    1.958542    1.834941
H      4.588836    0.163273   -1.165398
H      3.036265   -1.429763   -2.218741
H      0.681511   -1.503495   -1.546405
H      1.243218    1.540856    2.511521
H      1.783728    2.939786    1.552818
H      0.171936    2.320380    1.318407
H     -0.598985    0.044474    1.302530
H     -1.037988    0.186674   -2.342449
H     -2.992637   -0.737820   -3.512514
H     -4.797866   -1.866443   -2.235818
H     -4.639879   -2.061047    0.213410
H     -3.458183   -1.871775    3.332048
