29

C      5.045461   -0.339066    0.041636
C      3.739449    0.077587   -0.615814
C      2.537358   -0.249370    0.269789
C      1.225686    0.171293   -0.395144
C      0.022642   -0.155871    0.491047
C     -1.289037    0.264814   -0.173938
C     -2.492081   -0.062324    0.712201
C     -3.802737    0.358086    0.047633
C     -5.001230    0.034586    0.925396
H      5.188667    0.181162    0.994102
H      5.062239   -1.416850    0.232520
H      5.891592   -0.096073   -0.608694
H      3.768234    1.153793   -0.822351
H      3.642505   -0.435408   -1.579734
H      2.515616   -1.326293    0.476757
H      2.641337    0.262839    1.234103
H      1.247545    1.248223   -0.601903
H      1.121810   -0.341096   -1.359340
H      0.126512    0.356521    1.455236
H      0.000779   -1.232797    0.697804
H     -1.392903   -0.247578   -1.138134
H     -1.267169    1.341744   -0.380700
H     -2.388306    0.449892    1.676533
H     -2.514028   -1.139239    0.919187
H     -3.913411   -0.154404   -0.915077
H     -3.787680    1.434801   -0.157702
H     -5.927533    0.343502    0.430980
H     -5.063875   -1.040243    1.123269
H     -4.937443    0.557771    1.884847
