27

C     -2.300815    1.796572   -0.330136
C     -2.534357    0.398228    0.226719
C     -1.596844   -0.655771   -0.397482
C     -1.951136   -2.066381    0.088161
N     -0.163845   -0.355852   -0.204222
C      0.620763   -0.166353   -1.340480
O      0.170290   -0.244366   -2.484615
C      2.074944    0.146341   -1.128653
C      2.539290    0.205158    0.130423
N      1.685027   -0.017654    1.178743
C      0.353450   -0.299064    1.077047
O     -0.284972   -0.480486    2.111031
C      3.957368    0.500266    0.538442
Br     3.118386    0.426046   -2.658356
H     -3.034111    2.494305    0.086714
H     -2.404707    1.807520   -1.419751
H     -1.303898    2.167976   -0.074048
H     -2.434770    0.427369    1.316603
H     -3.574338    0.115165    0.020819
H     -1.812620   -0.654457   -1.472792
H     -2.977286   -2.323377   -0.196141
H     -1.281725   -2.808673   -0.359936
H     -1.877822   -2.163264    1.175258
H      2.027627    0.019662    2.133275
H      3.987532    1.393709    1.172042
H      4.633197    0.676502   -0.301179
H      4.365373   -0.339120    1.112515
