29

C     -4.148866   -1.264577   -0.831039
C     -2.923447   -0.797788   -0.089112
C     -1.694710   -1.193165   -0.475554
C     -0.375823   -0.853549    0.165883
C      0.374788    0.218393   -0.632743
C      1.741954    0.534723   -0.049587
C      2.860528    0.158489   -0.702416
C      4.284794    0.357777   -0.295908
O      4.891523    1.240534   -1.225674
C      1.722902    1.304774    1.243988
C     -3.212296    0.123208    1.064108
H     -4.819257   -1.802926   -0.153047
H     -3.902838   -1.938092   -1.658745
H     -4.689024   -0.408520   -1.248473
H     -1.609350   -1.850524   -1.341197
H     -0.509817   -0.539618    1.205568
H      0.224589   -1.771465    0.210027
H      0.475449   -0.112855   -1.675195
H     -0.216852    1.142517   -0.671994
H      2.756435   -0.379736   -1.644678
H      4.817516   -0.597516   -0.330408
H      4.408557    0.767507    0.708280
H      4.320847    2.026697   -1.273460
H      1.032410    2.151850    1.169607
H      2.696957    1.720155    1.511931
H      1.393691    0.662301    2.066332
H     -3.748185   -0.416414    1.851615
H     -3.838703    0.957722    0.730740
H     -2.313773    0.560098    1.505833
