20

C      2.527805   -0.930286    0.241609
O      2.149144    0.376079   -0.179598
C      0.820281    0.529158   -0.488169
C      0.590677    1.343285   -1.604338
C     -0.706613    1.602966   -2.039255
C     -1.784137    1.058164   -1.349643
C     -1.565791    0.266497   -0.217531
C     -0.265339    0.003945    0.235865
O      0.016032   -0.724495    1.361330
C     -1.073143   -1.122789    2.182742
H      2.457405   -1.015098    1.329864
H      3.579046   -1.072019   -0.028608
H      1.951702   -1.718224   -0.256522
H      1.435273    1.768773   -2.140584
H     -0.873118    2.228035   -2.912270
H     -2.799033    1.255636   -1.685708
H     -2.438762   -0.126449    0.292892
H     -1.715953   -1.839887    1.662031
H     -0.660582   -1.626125    3.062496
H     -1.644893   -0.257167    2.533398
