14

C      1.997828   -0.089574    0.139043
C      0.506533   -0.022103    0.010885
C     -0.154796    1.207445    0.008595
C     -1.538818    1.217611   -0.079554
N     -2.296399    0.102841   -0.155021
C     -1.637640   -1.075310   -0.136786
C     -0.258062   -1.188588   -0.051210
H      2.393450   -0.976796   -0.366485
H      2.281720   -0.128170    1.195192
H      2.469356    0.784412   -0.322528
H      0.390742    2.142823    0.073366
H     -2.090809    2.153007   -0.089308
H     -2.267993   -1.958129   -0.191922
H      0.204888   -2.169470   -0.034268
