24

C     -3.520536   -0.300006    1.094778
N     -2.232316   -0.113379    0.448922
C     -2.274226    0.302216   -0.946644
C     -1.098401   -0.061314    1.256883
O     -1.136107   -0.062626    2.485105
C      0.239567   -0.025990    0.622237
C      0.608460   -0.993336   -0.322184
C      1.889293   -0.967812   -0.881031
C      2.800839    0.019819   -0.476916
C      2.441844    0.974508    0.486051
C      1.159652    0.943018    1.040933
N      4.147484    0.049144   -1.063436
O      4.924642    0.934303   -0.679297
O      4.423794   -0.809949   -1.912741
H     -4.153071   -0.926267    0.458840
H     -3.989635    0.678712    1.232529
H     -3.413251   -0.784086    2.069525
H     -2.623952   -0.540095   -1.550082
H     -1.306017    0.642030   -1.316574
H     -2.979244    1.134000   -1.043905
H     -0.093347   -1.772528   -0.611527
H      2.162897   -1.723385   -1.615175
H      3.144325    1.736234    0.819102
H      0.877306    1.666791    1.803692
