21

C     -1.930741   -0.344027   -1.508370
C     -1.129331   -0.397155   -0.213223
C     -1.977411    0.092249    0.956405
O      0.003300    0.459390   -0.382030
C      1.127395    0.127650    0.437344
C      1.938353    1.403926    0.626956
C      1.971320   -0.940317   -0.251150
H     -2.244214    0.680803   -1.736624
H     -1.314688   -0.678870   -2.350077
H     -2.819792   -0.979629   -1.453444
H     -0.812260   -1.431579   -0.039639
H     -1.419502    0.041477    1.896565
H     -2.885229   -0.509156    1.065829
H     -2.264683    1.140662    0.819238
H      0.800334   -0.228904    1.420502
H      1.325438    2.175685    1.105322
H      2.262121    1.812515   -0.336825
H      2.821566    1.226501    1.248144
H      2.268445   -0.616765   -1.254912
H      1.406375   -1.869206   -0.376620
H      2.873203   -1.165249    0.326611
