22

C     -1.713112    2.151269    0.188680
C     -2.269014    0.856918    0.141712
C     -1.429255   -0.268245    0.045393
C     -1.808616   -1.622213   -0.012216
C     -0.825606   -2.627740   -0.108058
C      0.541392   -2.305995   -0.147935
C      0.913049   -0.973223   -0.091148
C     -0.058312   -0.010944    0.001858
C      0.502248    1.238847    0.046212
C     -0.322719    2.347036    0.140994
C      1.998866    1.163681   -0.020654
C      2.281877   -0.360266   -0.115288
H     -2.372893    3.012819    0.263133
H     -3.347745    0.733777    0.180267
H     -2.858880   -1.898643    0.016832
H     -1.131724   -3.670570   -0.151847
H      1.287462   -3.090975   -0.221867
H      0.091359    3.349755    0.178076
H      2.455466    1.588691    0.879108
H      2.380653    1.685534   -0.904167
H      2.880161   -0.698180    0.737096
H      2.805344   -0.601334   -1.046179
