8

C      0.948766   -0.032969   -0.010830
S     -0.816380   -0.177226    0.034511
O     -1.212313   -0.584392    1.366817
O     -1.251715   -0.892445   -1.147239
Cl    -1.557743    1.717753   -0.186066
H      1.375796   -1.031197    0.104792
H      1.242821    0.390987   -0.972603
H      1.270769    0.609489    0.810618
