26

C     -4.437510    0.442146   -0.153237
C     -3.185210   -0.416328   -0.232438
C     -1.918266    0.426955   -0.091235
C     -0.660897   -0.440312   -0.171453
C      0.607028    0.403519   -0.030153
C      1.864395   -0.463828   -0.110378
C      3.132455    0.379405    0.030848
C      4.376491   -0.488879   -0.049830
Br     5.966596    0.619163    0.133818
H     -5.331359   -0.180977   -0.256501
H     -4.495808    0.963256    0.807691
H     -4.451132    1.190755   -0.951821
H     -3.218299   -1.174306    0.558812
H     -3.173870   -0.948060   -1.190998
H     -1.892168    1.186128   -0.882466
H     -1.936590    0.959884    0.867265
H     -0.642661   -0.973036   -1.130035
H     -0.687089   -1.199308    0.619904
H      0.588794    0.936238    0.928424
H      0.633224    1.162506   -0.821509
H      1.838175   -1.222820    0.681048
H      1.882609   -0.996535   -1.069025
H      3.111252    0.916048    0.987716
H      3.155579    1.141767   -0.758014
H      4.459619   -0.997192   -1.014348
H      4.414645   -1.226189    0.756709
