33

C      4.303196    1.818121   -0.752672
C      3.410542    2.799304   -0.323657
C      2.101266    2.452526    0.014590
C      1.682811    1.117822   -0.073562
C      2.574250    0.139638   -0.503241
C      3.887525    0.489009   -0.844409
C      2.139866   -1.264104   -0.609174
O      2.909033   -2.116513   -1.038254
C      0.772734   -1.632685   -0.186872
C      0.390334   -2.978366   -0.256167
C     -0.885000   -3.360406    0.145441
C     -1.777903   -2.401436    0.622879
C     -1.420783   -1.045173    0.700884
C     -0.124365   -0.663785    0.277615
C      0.294547    0.761539    0.276603
O     -0.509304    1.653464    0.539212
N     -2.350182   -0.123074    1.225138
C     -3.622278    0.020670    0.495767
C     -3.445202    0.738326   -0.850223
O     -2.986653    2.077211   -0.673403
H      5.323213    2.087697   -1.018002
H      3.733037    3.836026   -0.254033
H      1.411526    3.227193    0.345556
H      4.589311   -0.271507   -1.183060
H      1.087131   -3.733104   -0.617873
H     -1.180460   -4.406228    0.103380
H     -2.756234   -2.726128    0.971563
H     -1.913365    0.799248    1.348444
H     -4.109997   -0.948558    0.347940
H     -4.284768    0.620998    1.129774
H     -2.741237    0.214807   -1.504698
H     -4.409028    0.789157   -1.366139
H     -2.093561    2.028310   -0.270341
