17

C      2.378718   -0.813200    0.235470
C      1.098085   -0.054930    0.062481
C      1.097279    1.337712   -0.006811
C     -0.116552    1.993045   -0.134324
N     -1.310561    1.364882   -0.187244
C     -1.302725    0.014220   -0.104937
C     -0.128039   -0.724081    0.024756
C     -2.628046   -0.684934   -0.153985
H      2.597151   -0.941643    1.300047
H      2.314362   -1.800182   -0.234587
H      3.213437   -0.283299   -0.235383
H      2.019271    1.907318    0.036456
H     -0.162378    3.076393   -0.196657
H     -0.170233   -1.806830    0.094742
H     -2.791674   -1.249977    0.768885
H     -2.662848   -1.369985   -1.006776
H     -3.445245    0.035492   -0.262132
