26

C      4.493092   -0.433057   -0.905994
N      3.385904   -0.389549    0.009151
C      2.176772    0.145910   -0.342405
O      1.893456    0.539211   -1.465216
O      1.357018    0.177334    0.773299
C      0.079032    0.700050    0.521353
C     -0.071221    2.088725    0.504757
C     -1.334040    2.633648    0.303789
C     -2.437137    1.792888    0.137459
C     -2.297362    0.393592    0.173985
C     -1.018181   -0.175702    0.374531
C     -0.902092   -1.581541    0.417490
C     -2.020042   -2.402542    0.261658
C     -3.273647   -1.835611    0.061031
C     -3.411489   -0.447651    0.017601
H      5.196706   -1.195857   -0.564982
H      4.981638    0.544833   -0.908833
H      4.146542   -0.668919   -1.915702
H      3.532840   -0.549993    0.995689
H      0.789089    2.737545    0.636442
H     -1.463596    3.712231    0.274584
H     -3.416211    2.240992   -0.019995
H      0.068810   -2.047061    0.569554
H     -1.908959   -3.483075    0.294123
H     -4.145808   -2.472009   -0.063142
H     -4.401113   -0.024394   -0.140228
