16

C     -2.685344   -0.159576    0.184387
O     -1.691827    0.807081   -0.131606
C     -0.389446    0.391203   -0.086373
C      0.052832   -0.891626    0.240637
C      1.421049   -1.182155    0.248198
C      2.351146   -0.193996   -0.070338
C      1.915203    1.087493   -0.397314
C      0.549489    1.376309   -0.404539
H     -2.667380   -0.991648   -0.527256
H     -3.662395    0.326436    0.102947
H     -2.576070   -0.516325    1.213897
H     -0.638306   -1.687981    0.494280
H      1.760449   -2.182794    0.503567
H      3.413563   -0.422700   -0.063618
H      2.634745    1.862548   -0.646632
H      0.212293    2.377732   -0.660237
