20

C      2.393806   -0.039354   -0.160260
N      0.962057   -0.129495   -0.445860
C      0.325859    1.187886   -0.306112
C     -1.162794    1.120778   -0.650722
C     -1.881679    0.076542    0.195883
C     -1.164168   -1.265718    0.109393
C      0.324529   -1.122719    0.429832
H      2.591677    0.287706    0.866951
H      2.878428   -1.010152   -0.312664
H      2.879392    0.663968   -0.845882
H      0.801733    1.903986   -0.987103
H      0.450215    1.575737    0.713631
H     -1.283145    0.875357   -1.713603
H     -1.623345    2.102998   -0.495622
H     -1.910830    0.409337    1.240691
H     -2.919670   -0.029198   -0.137980
H     -1.625694   -1.976825    0.803829
H     -1.284616   -1.680089   -0.899676
H      0.448818   -0.849494    1.486084
H      0.799427   -2.101252    0.288593
