22

C      3.614006   -0.370372    0.323833
C      3.486232    0.160132   -0.961748
C      2.222090    0.461489   -1.471956
C      1.088981    0.230675   -0.693091
C      1.216538   -0.298948    0.590307
C      2.477908   -0.600659    1.101929
O      0.130785   -0.543040    1.393151
C     -1.088981   -0.230678    0.847625
C     -2.222089   -0.461485    1.626494
C     -3.486231   -0.160122    1.116289
C     -3.614006    0.370379   -0.169294
C     -2.477908    0.600663   -0.947391
C     -1.216538    0.298947   -0.435772
O     -0.130785    0.543044   -1.238613
H      4.599142   -0.604498    0.719667
H      4.371931    0.338851   -1.566388
H      2.120917    0.874145   -2.471632
H      2.575489   -1.013223    2.102000
H     -2.120917   -0.874158    2.626163
H     -4.371929   -0.338850    1.720928
H     -4.599143    0.604494   -0.565133
H     -2.575491    1.013215   -1.947467
