12

C     -1.504602   -0.561280   -0.142735
C     -0.466174    0.379731    0.447854
C      0.769338    0.436042   -0.402119
C      1.986213    0.067080    0.017099
H     -2.400926   -0.577203    0.485575
H     -1.119190   -1.584391   -0.208746
H     -1.802567   -0.243514   -1.147705
H     -0.888658    1.388270    0.521845
H     -0.226276    0.057768    1.467972
H      0.652886    0.812110   -1.416725
H      2.154730   -0.309848    1.021074
H      2.845225    0.135235   -0.643388
