16

C     -2.214139   -0.014229    0.176740
C     -0.721687   -0.140982    0.083305
C     -0.101058   -1.383721    0.268743
C      1.287625   -1.503218    0.182099
C      2.069883   -0.382256   -0.090671
C      1.465742    0.860736   -0.277453
C      0.078346    0.973346   -0.189612
O     -0.526562    2.185661   -0.370552
H     -2.685873   -0.978016    0.395480
H     -2.624096    0.348818   -0.771254
H     -2.486480    0.678769    0.979326
H     -0.696563   -2.268355    0.482290
H      1.757958   -2.472318    0.327777
H      3.150356   -0.478079   -0.157549
H      2.087998    1.724299   -0.489131
H      0.158551    2.849545   -0.549537
