26

C      3.902732   -0.171955   -0.909614
C      3.580433   -1.489895   -0.589273
C      2.282648   -1.813769   -0.189498
C      1.300616   -0.816583   -0.112338
C      1.624017    0.498735   -0.431715
C      2.927580    0.823370   -0.830550
C      0.601371    1.556100   -0.346554
O      0.900674    2.723239   -0.572242
C     -0.786919    1.192807    0.003420
C     -1.762308    2.198555    0.015760
C     -3.085008    1.881109    0.307959
C     -3.434639    0.560952    0.590418
C     -2.466754   -0.453355    0.625741
C     -1.130202   -0.130012    0.302288
C     -0.065890   -1.167504    0.322476
O     -0.295157   -2.306819    0.719507
N     -2.909690   -1.780966    0.765459
H      4.913961    0.081962   -1.219873
H      4.339863   -2.266476   -0.648861
H      2.040743   -2.845191    0.061560
H      3.186797    1.850978   -1.080092
H     -1.496454    3.228551   -0.216958
H     -3.847832    2.656058    0.295539
H     -4.480138    0.320872    0.772827
H     -2.137761   -2.425038    0.979772
H     -3.702684   -1.905726    1.384842
