10

C      1.286500   -0.118272    0.022896
C     -0.023102    0.614460   -0.088311
O     -0.068848    1.831170   -0.263179
C     -1.273997   -0.214253    0.024895
H      1.359834   -0.860572   -0.775685
H      2.114493    0.589302   -0.074867
H      1.351672   -0.605866    0.998664
H     -1.300961   -0.705302    1.000735
H     -1.292799   -0.960007   -0.773613
H     -2.152791    0.429340   -0.071534
