13

C      1.056967   -0.069681   -0.044738
C     -0.086598   -1.045272   -0.154740
C     -1.251730   -0.127118   -0.453684
O     -0.974187    1.119338    0.200263
C      0.394648    1.111903    0.629874
H      1.398969    0.215058   -1.046818
H      1.913733   -0.455681    0.513520
H     -0.241646   -1.544820    0.808907
H      0.060268   -1.812443   -0.919315
H     -2.205037   -0.527022   -0.097084
H     -1.335078    0.070777   -1.527669
H      0.867841    2.063457    0.371970
H      0.401847    1.001503    1.719513
