29

C     -2.218873   -0.066301    1.995758
C     -2.361015    0.747310    0.715092
C     -1.667936    0.090769   -0.497548
C     -2.004430    0.857233   -1.783756
C     -0.153895   -0.028709   -0.326237
C      0.627869    1.131461   -0.156555
C      2.017615    1.042214    0.004607
C      2.657630   -0.200752   -0.000427
C      1.888704   -1.362913   -0.169642
C      0.490941   -1.283048   -0.332259
O     -0.314419   -2.379768   -0.500012
N      2.578982   -2.658788   -0.171831
O      3.808103   -2.663058   -0.026679
O      1.885271   -3.677118   -0.319770
N      2.808751    2.268796    0.180843
O      2.204033    3.349392    0.181986
O      4.033181    2.145320    0.317574
H     -1.175897   -0.126950    2.320757
H     -2.598365   -1.083799    1.858213
H     -2.791773    0.401780    2.802708
H     -1.977589    1.759553    0.889203
H     -3.431485    0.854591    0.498513
H     -2.109252   -0.906203   -0.614138
H     -1.678171    1.901822   -1.737732
H     -1.524102    0.393818   -2.652834
H     -3.085643    0.856048   -1.960146
H      0.141662    2.106998   -0.151012
H      3.738017   -0.262510    0.125505
H      0.212086   -3.207188   -0.490181
