20

C     -0.466237    0.154067    2.276475
O     -1.088859    0.450654    1.037113
C     -0.221077    0.361616   -0.107385
C      0.052750    1.812559   -0.592394
Cl     1.121400    2.762476    0.481688
O      0.971262   -0.388509    0.157564
C      1.871460   -0.495988   -0.934219
O     -0.963529   -0.259658   -1.177205
C     -1.470389   -1.540787   -0.828255
H      0.410496    0.781992    2.452151
H     -0.193005   -0.904572    2.323615
H     -1.189615    0.349000    3.073279
H      0.515491    1.816314   -1.584407
H     -0.888989    2.366296   -0.674424
H      1.377146   -0.884770   -1.828863
H      2.346559    0.463990   -1.150679
H      2.659940   -1.199106   -0.650722
H     -1.937043   -1.972340   -1.718272
H     -0.670879   -2.212610   -0.502989
H     -2.236883   -1.460625   -0.052071
