17

C     -1.000452   -0.965356   -0.890120
C     -0.550727   -0.223199    0.371026
C     -1.685107    0.669566    0.877530
C      0.706228    0.620311    0.108821
C      1.944188   -0.216429   -0.085766
O      2.106900   -1.386093    0.214683
O      2.950655    0.495224   -0.631127
H     -0.224059   -1.647879   -1.249411
H     -1.236951   -0.266251   -1.699606
H     -1.896470   -1.562227   -0.688475
H     -0.334866   -0.967863    1.147570
H     -1.946267    1.437395    0.141235
H     -1.398085    1.173877    1.806314
H     -2.583433    0.078099    1.083978
H      0.557621    1.243078   -0.781264
H      0.901241    1.279958    0.962516
H      3.689584   -0.146354   -0.687904
