23

C      4.151889    0.176120    0.050670
C      2.816388   -0.232778    0.651272
C      1.648193    0.203860   -0.231570
C      0.308228   -0.208615    0.374951
C     -0.856900    0.216753   -0.487625
O     -0.775037    0.819248   -1.548145
O     -2.021984   -0.176985    0.101965
C     -3.199948    0.175849   -0.633214
C     -4.406491   -0.322549    0.138066
H      4.295879   -0.281034   -0.933512
H      4.973279   -0.146057    0.698306
H      4.214800    1.263121   -0.062515
H      2.718073    0.214534    1.647238
H      2.798707   -1.321151    0.781019
H      1.753474   -0.238923   -1.229986
H      1.673059    1.292550   -0.366140
H      0.271688   -1.298219    0.484951
H      0.190148    0.254693    1.360889
H     -3.173214   -0.294661   -1.622461
H     -3.255091    1.264718   -0.742880
H     -4.355414   -1.407856    0.274467
H     -5.333933   -0.075592   -0.386091
H     -4.435794    0.122974    1.137943
