21

C     -3.716326    0.546198   -0.108009
C     -2.735300   -0.562389    0.219892
O     -1.408926   -0.054433    0.032455
C     -0.427462   -0.953632    0.294528
O     -0.595663   -2.106404    0.660383
C      0.913775   -0.346512    0.075609
C      1.080133    0.980407   -0.344943
C      2.362875    1.500549   -0.535299
C      3.482800    0.701326   -0.307550
C      3.325389   -0.619217    0.110810
C      2.045136   -1.142750    0.302180
H     -3.582267    0.886665   -1.140108
H     -4.747468    0.205553    0.020656
H     -3.547125    1.414098    0.537932
H     -2.867241   -0.877237    1.261146
H     -2.903042   -1.414536   -0.448282
H      0.221177    1.620993   -0.528296
H      2.488049    2.530236   -0.861565
H      4.480122    1.108381   -0.456382
H      4.198535   -1.242313    0.288369
H      1.932830   -2.174986    0.628977
