18

C      2.096364   -0.415397    0.286194
N      0.682817   -0.096408    0.471372
C      0.324448    1.140102   -0.253154
C     -1.176933    1.443747   -0.124858
O     -1.970497    0.354695   -0.616720
C     -1.662125   -0.842817    0.110314
C     -0.172053   -1.199761   -0.012501
H      2.725273    0.394200    0.672603
H      2.352920   -0.578141   -0.766847
H      2.362118   -1.317247    0.848624
H      0.575572    1.037295   -1.317098
H      0.892257    1.986775    0.149158
H     -1.427496    2.328783   -0.718378
H     -1.453692    1.651735    0.915831
H     -2.271665   -1.649536   -0.309212
H     -1.955861   -0.714836    1.159231
H      0.054988   -1.416069   -1.064771
H      0.023564   -2.107119    0.570213
