14

C     -0.390549    1.477955   -0.534422
C      0.940919    1.118144   -0.311350
C      1.253710   -0.166061    0.151016
C      0.229603   -1.086555    0.388569
C     -1.092264   -0.716734    0.162797
C     -1.412247    0.557639   -0.296749
O     -2.058652   -1.646284    0.407783
C      2.619537   -0.534918    0.379763
N      3.728155   -0.826099    0.562625
H     -0.630170    2.476208   -0.893568
H      1.730129    1.843918   -0.500024
H      0.452103   -2.088712    0.747764
H     -2.442900    0.850004   -0.474152
H     -2.927374   -1.258504    0.209948
