29

C      1.934327    0.124657   -1.514549
C      1.810198    0.724543   -0.141188
C      1.297992    0.099915    0.937388
C      0.787784   -1.314592    1.037953
C     -0.732904   -1.396714    1.238344
C     -1.538962   -1.056292   -0.000208
C     -2.158662    0.121819   -0.215669
C     -2.171444    1.333646    0.658376
O     -1.525305    2.384736   -0.043351
C     -1.637845   -2.161751   -1.021370
C      2.312222    2.142318   -0.039895
H      2.989060    0.052688   -1.799402
H      1.421783    0.757430   -2.247151
H      1.499276   -0.873176   -1.596274
H      1.252872    0.649682    1.878173
H      1.097562   -1.927891    0.187116
H      1.272293   -1.768871    1.912182
H     -0.989065   -2.420856    1.541172
H     -1.028382   -0.774480    2.090242
H     -2.720150    0.253727   -1.140297
H     -3.202665    1.637004    0.861985
H     -1.665172    1.200159    1.615936
H     -0.647977    2.039495   -0.287873
H     -2.094157   -3.051009   -0.574346
H     -2.248984   -1.876317   -1.884239
H     -0.645636   -2.430560   -1.396154
H      2.200745    2.551974    0.969527
H      1.756816    2.791641   -0.724552
H      3.374382    2.187076   -0.301873
