24

C      3.009404   -1.427521    0.112469
N      2.116114   -0.312343    0.298034
C      2.459737    0.932001    0.756521
N      1.415162    1.734289    0.814630
C      0.375939    0.969735    0.377592
C      0.773163   -0.291661    0.052673
C     -0.117132   -1.288635   -0.430026
O      0.251220   -2.422957   -0.720121
N     -1.434845   -0.833249   -0.533001
C     -1.885033    0.463479   -0.206830
O     -3.073998    0.772107   -0.332127
N     -0.932706    1.370578    0.259046
C     -1.313652    2.724782    0.616406
C     -2.441823   -1.758297   -1.014813
H      4.023336   -1.133510    0.395762
H      2.674121   -2.251486    0.747227
H      2.990834   -1.716838   -0.941192
H      3.472636    1.199047    1.031082
H     -0.756498    3.429549   -0.008973
H     -2.382880    2.899587    0.471194
H     -1.071392    2.897971    1.669749
H     -3.216847   -1.870635   -0.249487
H     -2.904191   -1.342840   -1.916265
H     -2.030668   -2.743152   -1.249548
