10

C     -1.164711   -0.315406   -0.294743
N      0.123870   -0.300984    0.384267
C      1.076129    0.543760   -0.323769
H     -1.078968   -0.714440   -1.310757
H     -1.599980    0.688210   -0.339379
H     -1.861590   -0.951925    0.259288
H      0.489041   -1.251822    0.431166
H      2.032192    0.540999    0.208850
H      0.727842    1.580726   -0.369532
H      1.256175    0.180883   -1.341005
