
     RDKit          3D

 15 14  0  0  0  0  0  0  0  0999 V2000
   -0.6618   -0.2150    1.4789 C   0  0  0  0  0  0  0  0  0  0  0  0
   -0.2688   -0.2906    0.0039 C   0  0  0  0  0  0  0  0  0  0  0  0
   -1.3322    0.3732   -0.8703 C   0  0  0  0  0  0  0  0  0  0  0  0
    1.0708    0.3677   -0.2135 C   0  0  0  0  0  0  0  0  0  0  0  0
    2.1520   -0.2691   -0.6816 C   0  0  0  0  0  0  0  0  0  0  0  0
    0.0861   -0.7083    2.1099 H   0  0  0  0  0  0  0  0  0  0  0  0
   -0.7569    0.8227    1.8183 H   0  0  0  0  0  0  0  0  0  0  0  0
   -1.6222   -0.7134    1.6494 H   0  0  0  0  0  0  0  0  0  0  0  0
   -0.2120   -1.3500   -0.2775 H   0  0  0  0  0  0  0  0  0  0  0  0
   -2.3032   -0.1159   -0.7367 H   0  0  0  0  0  0  0  0  0  0  0  0
   -1.4535    1.4339   -0.6224 H   0  0  0  0  0  0  0  0  0  0  0  0
   -1.0672    0.3036   -1.9312 H   0  0  0  0  0  0  0  0  0  0  0  0
    1.1501    1.4263    0.0289 H   0  0  0  0  0  0  0  0  0  0  0  0
    2.1276   -1.3234   -0.9386 H   0  0  0  0  0  0  0  0  0  0  0  0
    3.0912    0.2583   -0.8176 H   0  0  0  0  0  0  0  0  0  0  0  0
  1  2  1  0
  2  3  1  0
  2  4  1  0
  4  5  2  3
  1  6  1  0
  1  7  1  0
  1  8  1  0
  2  9  1  0
  3 10  1  0
  3 11  1  0
  3 12  1  0
  4 13  1  0
  5 14  1  0
  5 15  1  0
M  END
$$$$
