
     RDKit          3D

 22 22  0  0  0  0  0  0  0  0999 V2000
   -1.7483   -1.1037   -0.0848 C   0  0  0  0  0  0  0  0  0  0  0  0
   -1.4203    0.3721   -0.3262 C   0  0  0  0  0  0  0  0  0  0  0  0
   -2.6590    1.2276   -0.0496 C   0  0  0  0  0  0  0  0  0  0  0  0
   -0.2474    0.8535    0.5486 C   0  0  0  0  0  0  0  0  0  0  0  0
    1.0670    0.2091    0.1981 C   0  0  0  0  0  0  0  0  0  0  0  0
    1.7776    0.5963   -0.9352 C   0  0  0  0  0  0  0  0  0  0  0  0
    2.9564    0.0353   -1.2944 N   0  0  0  0  0  0  0  0  0  0  0  0
    3.4025   -0.9386   -0.4711 C   0  0  0  0  0  0  0  0  0  0  0  0
    2.7044   -1.3330    0.6567 C   0  0  0  0  0  0  0  0  0  0  0  0
    1.5270   -0.7721    1.0150 N   0  0  0  0  0  0  0  0  0  0  0  0
   -0.9086   -1.7487   -0.3619 H   0  0  0  0  0  0  0  0  0  0  0  0
   -2.6095   -1.4125   -0.6872 H   0  0  0  0  0  0  0  0  0  0  0  0
   -1.9887   -1.2903    0.9674 H   0  0  0  0  0  0  0  0  0  0  0  0
   -1.1598    0.4938   -1.3854 H   0  0  0  0  0  0  0  0  0  0  0  0
   -2.4574    2.2833   -0.2598 H   0  0  0  0  0  0  0  0  0  0  0  0
   -2.9750    1.1438    0.9959 H   0  0  0  0  0  0  0  0  0  0  0  0
   -3.4965    0.9164   -0.6829 H   0  0  0  0  0  0  0  0  0  0  0  0
   -0.1296    1.9408    0.4537 H   0  0  0  0  0  0  0  0  0  0  0  0
   -0.4693    0.6648    1.6071 H   0  0  0  0  0  0  0  0  0  0  0  0
    1.4146    1.3774   -1.5947 H   0  0  0  0  0  0  0  0  0  0  0  0
    4.3450   -1.3987   -0.7441 H   0  0  0  0  0  0  0  0  0  0  0  0
    3.0750   -2.1165    1.3075 H   0  0  0  0  0  0  0  0  0  0  0  0
  1  2  1  0
  2  3  1  0
  2  4  1  0
  4  5  1  0
  5  6  2  0
  6  7  1  0
  7  8  2  0
  8  9  1  0
  9 10  2  0
 10  5  1  0
  1 11  1  0
  1 12  1  0
  1 13  1  0
  2 14  1  0
  3 15  1  0
  3 16  1  0
  3 17  1  0
  4 18  1  0
  4 19  1  0
  6 20  1  0
  8 21  1  0
  9 22  1  0
M  END
$$$$
