
     RDKit          3D

 21 20  0  0  0  0  0  0  0  0999 V2000
   -2.6851    0.4436    0.0518 C   0  0  0  0  0  0  0  0  0  0  0  0
   -1.3780   -0.3281    0.1875 C   0  0  2  0  0  0  0  0  0  0  0  0
   -0.1862    0.5215   -0.2702 C   0  0  0  0  0  0  0  0  0  0  0  0
    1.1753   -0.2023   -0.2167 C   0  0  0  0  0  0  0  0  0  0  0  0
    1.5555   -0.6248    1.2030 C   0  0  0  0  0  0  0  0  0  0  0  0
    2.2657    0.7047   -0.7940 C   0  0  0  0  0  0  0  0  0  0  0  0
   -1.4524   -1.5029   -0.6142 O   0  0  0  0  0  0  0  0  0  0  0  0
   -2.6714    1.3579    0.6527 H   0  0  0  0  0  0  0  0  0  0  0  0
   -2.8766    0.7109   -0.9933 H   0  0  0  0  0  0  0  0  0  0  0  0
   -3.5294   -0.1737    0.3773 H   0  0  0  0  0  0  0  0  0  0  0  0
   -1.2520   -0.6346    1.2307 H   0  0  0  0  0  0  0  0  0  0  0  0
   -0.3592    0.8329   -1.3093 H   0  0  0  0  0  0  0  0  0  0  0  0
   -0.1401    1.4371    0.3332 H   0  0  0  0  0  0  0  0  0  0  0  0
    1.1281   -1.1026   -0.8418 H   0  0  0  0  0  0  0  0  0  0  0  0
    0.8647   -1.3781    1.5931 H   0  0  0  0  0  0  0  0  0  0  0  0
    1.5509    0.2308    1.8866 H   0  0  0  0  0  0  0  0  0  0  0  0
    2.5580   -1.0661    1.2214 H   0  0  0  0  0  0  0  0  0  0  0  0
    3.2344    0.1936   -0.8001 H   0  0  0  0  0  0  0  0  0  0  0  0
    2.0321    0.9860   -1.8263 H   0  0  0  0  0  0  0  0  0  0  0  0
    2.3709    1.6235   -0.2070 H   0  0  0  0  0  0  0  0  0  0  0  0
   -2.2052   -2.0291   -0.2950 H   0  0  0  0  0  0  0  0  0  0  0  0
  1  2  1  0
  2  3  1  0
  3  4  1  0
  4  5  1  0
  4  6  1  0
  2  7  1  0
  1  8  1  0
  1  9  1  0
  1 10  1  0
  2 11  1  1
  3 12  1  0
  3 13  1  0
  4 14  1  0
  5 15  1  0
  5 16  1  0
  5 17  1  0
  6 18  1  0
  6 19  1  0
  6 20  1  0
  7 21  1  0
M  END
$$$$
