
     RDKit          3D

 22 23  0  0  0  0  0  0  0  0999 V2000
   -1.4126   -1.1926    0.3336 C   0  0  0  0  0  0  0  0  0  0  0  0
   -0.6875   -0.1181   -0.1985 C   0  0  0  0  0  0  0  0  0  0  0  0
   -1.3113    0.7044   -1.1460 C   0  0  0  0  0  0  0  0  0  0  0  0
   -2.6316    0.4633   -1.5489 C   0  0  0  0  0  0  0  0  0  0  0  0
   -3.3552   -0.6105   -1.0124 C   0  0  0  0  0  0  0  0  0  0  0  0
   -2.7330   -1.4370   -0.0668 C   0  0  0  0  0  0  0  0  0  0  0  0
   -3.5332   -2.7912    0.6552 Cl  0  0  0  0  0  0  0  0  0  0  0  0
   -4.9885   -0.9133   -1.5124 Cl  0  0  0  0  0  0  0  0  0  0  0  0
   -3.3018    1.5420   -2.7246 Cl  0  0  0  0  0  0  0  0  0  0  0  0
    0.6975    0.1374    0.2239 C   0  0  0  0  0  0  0  0  0  0  0  0
    1.7396   -0.4748   -0.4897 C   0  0  0  0  0  0  0  0  0  0  0  0
    3.0761   -0.2699   -0.1355 C   0  0  0  0  0  0  0  0  0  0  0  0
    3.4041    0.5571    0.9472 C   0  0  0  0  0  0  0  0  0  0  0  0
    2.3750    1.1809    1.6766 C   0  0  0  0  0  0  0  0  0  0  0  0
    1.0273    0.9708    1.3151 C   0  0  0  0  0  0  0  0  0  0  0  0
   -0.2588    1.7357    2.2077 Cl  0  0  0  0  0  0  0  0  0  0  0  0
    2.7633    2.2122    3.0255 Cl  0  0  0  0  0  0  0  0  0  0  0  0
    5.0714    0.8017    1.3751 Cl  0  0  0  0  0  0  0  0  0  0  0  0
    4.2712   -1.0783   -1.0902 Cl  0  0  0  0  0  0  0  0  0  0  0  0
   -0.9493   -1.8448    1.0732 H   0  0  0  0  0  0  0  0  0  0  0  0
   -0.7682    1.5471   -1.5724 H   0  0  0  0  0  0  0  0  0  0  0  0
    1.5054   -1.1221   -1.3356 H   0  0  0  0  0  0  0  0  0  0  0  0
  1  2  2  0
  2  3  1  0
  3  4  2  0
  4  5  1  0
  5  6  2  0
  6  7  1  0
  5  8  1  0
  4  9  1  0
  2 10  1  0
 10 11  2  0
 11 12  1  0
 12 13  2  0
 13 14  1  0
 14 15  2  0
 15 16  1  0
 14 17  1  0
 13 18  1  0
 12 19  1  0
  6  1  1  0
 15 10  1  0
  1 20  1  0
  3 21  1  0
 11 22  1  0
M  END
$$$$
