
     RDKit          3D

 19 19  0  0  0  0  0  0  0  0999 V2000
   -2.4725   -0.3260    0.6001 C   0  0  0  0  0  0  0  0  0  0  0  0
   -1.6282   -0.3141   -0.6655 C   0  0  0  0  0  0  0  0  0  0  0  0
   -0.1565   -0.1858   -0.3599 C   0  0  0  0  0  0  0  0  0  0  0  0
    0.6353   -1.3386   -0.2472 C   0  0  0  0  0  0  0  0  0  0  0  0
    1.9961   -1.2413    0.0497 C   0  0  0  0  0  0  0  0  0  0  0  0
    2.5807    0.0088    0.2422 C   0  0  0  0  0  0  0  0  0  0  0  0
    1.8058    1.1638    0.1407 C   0  0  0  0  0  0  0  0  0  0  0  0
    0.4465    1.0606   -0.1560 C   0  0  0  0  0  0  0  0  0  0  0  0
   -0.3207    2.1879   -0.2502 O   0  0  0  0  0  0  0  0  0  0  0  0
   -2.3508    0.6007    1.1707 H   0  0  0  0  0  0  0  0  0  0  0  0
   -2.1960   -1.1609    1.2530 H   0  0  0  0  0  0  0  0  0  0  0  0
   -3.5322   -0.4304    0.3464 H   0  0  0  0  0  0  0  0  0  0  0  0
   -1.8079   -1.2364   -1.2319 H   0  0  0  0  0  0  0  0  0  0  0  0
   -1.9481    0.5031   -1.3228 H   0  0  0  0  0  0  0  0  0  0  0  0
    0.1928   -2.3220   -0.3901 H   0  0  0  0  0  0  0  0  0  0  0  0
    2.5985   -2.1424    0.1320 H   0  0  0  0  0  0  0  0  0  0  0  0
    3.6400    0.0825    0.4737 H   0  0  0  0  0  0  0  0  0  0  0  0
    2.2754    2.1297    0.2968 H   0  0  0  0  0  0  0  0  0  0  0  0
    0.2417    2.9607   -0.0818 H   0  0  0  0  0  0  0  0  0  0  0  0
  1  2  1  0
  2  3  1  0
  3  4  2  0
  4  5  1  0
  5  6  2  0
  6  7  1  0
  7  8  2  0
  8  9  1  0
  8  3  1  0
  1 10  1  0
  1 11  1  0
  1 12  1  0
  2 13  1  0
  2 14  1  0
  4 15  1  0
  5 16  1  0
  6 17  1  0
  7 18  1  0
  9 19  1  0
M  END
$$$$
