
     RDKit          3D

 12 12  0  0  0  0  0  0  0  0999 V2000
   -1.3583   -0.5639   -0.0092 C   0  0  0  0  0  0  0  0  0  0  0  0
   -1.2189    0.8230   -0.0101 C   0  0  0  0  0  0  0  0  0  0  0  0
    0.0541    1.3964   -0.0016 C   0  0  0  0  0  0  0  0  0  0  0  0
    1.1923    0.5834    0.0079 C   0  0  0  0  0  0  0  0  0  0  0  0
    1.0523   -0.8091    0.0089 C   0  0  0  0  0  0  0  0  0  0  0  0
   -0.2250   -1.3792    0.0003 C   0  0  0  0  0  0  0  0  0  0  0  0
    2.4098   -1.8780    0.0203 Cl  0  0  0  0  0  0  0  0  0  0  0  0
    2.7355    1.3606    0.0182 Cl  0  0  0  0  0  0  0  0  0  0  0  0
   -2.3497   -1.0115   -0.0158 H   0  0  0  0  0  0  0  0  0  0  0  0
   -2.1013    1.4591   -0.0175 H   0  0  0  0  0  0  0  0  0  0  0  0
    0.1530    2.4794   -0.0024 H   0  0  0  0  0  0  0  0  0  0  0  0
   -0.3438   -2.4602    0.0009 H   0  0  0  0  0  0  0  0  0  0  0  0
  1  2  2  0
  2  3  1  0
  3  4  2  0
  4  5  1  0
  5  6  2  0
  5  7  1  0
  4  8  1  0
  6  1  1  0
  1  9  1  0
  2 10  1  0
  3 11  1  0
  6 12  1  0
M  END
$$$$
