
     RDKit          3D

 22 22  0  0  0  0  0  0  0  0999 V2000
   -2.8359   -0.1812    0.1783 C   0  0  0  0  0  0  0  0  0  0  0  0
   -1.3953   -0.3366    0.3613 N   0  0  0  0  0  0  0  0  0  0  0  0
   -0.7744    0.9483    0.7394 C   0  0  0  0  0  0  0  0  0  0  0  0
    0.7619    0.8364    0.8750 C   0  0  0  0  0  0  0  0  0  0  0  0
    1.3953    0.3366   -0.3613 N   0  0  0  0  0  0  0  0  0  0  0  0
    0.7744   -0.9483   -0.7394 C   0  0  0  0  0  0  0  0  0  0  0  0
   -0.7619   -0.8364   -0.8750 C   0  0  0  0  0  0  0  0  0  0  0  0
    2.8359    0.1812   -0.1783 C   0  0  0  0  0  0  0  0  0  0  0  0
   -3.0810    0.5346   -0.6148 H   0  0  0  0  0  0  0  0  0  0  0  0
   -3.3056    0.1605    1.1073 H   0  0  0  0  0  0  0  0  0  0  0  0
   -3.2964   -1.1432   -0.0722 H   0  0  0  0  0  0  0  0  0  0  0  0
   -1.1802    1.2794    1.7030 H   0  0  0  0  0  0  0  0  0  0  0  0
   -1.0123    1.7249   -0.0003 H   0  0  0  0  0  0  0  0  0  0  0  0
    1.1584    1.8313    1.1111 H   0  0  0  0  0  0  0  0  0  0  0  0
    0.9990    0.1797    1.7233 H   0  0  0  0  0  0  0  0  0  0  0  0
    1.1802   -1.2794   -1.7030 H   0  0  0  0  0  0  0  0  0  0  0  0
    1.0123   -1.7249    0.0003 H   0  0  0  0  0  0  0  0  0  0  0  0
   -1.1584   -1.8313   -1.1111 H   0  0  0  0  0  0  0  0  0  0  0  0
   -0.9990   -0.1797   -1.7233 H   0  0  0  0  0  0  0  0  0  0  0  0
    3.3056   -0.1605   -1.1073 H   0  0  0  0  0  0  0  0  0  0  0  0
    3.0810   -0.5346    0.6148 H   0  0  0  0  0  0  0  0  0  0  0  0
    3.2964    1.1432    0.0722 H   0  0  0  0  0  0  0  0  0  0  0  0
  1  2  1  0
  2  3  1  0
  3  4  1  0
  4  5  1  0
  5  6  1  0
  6  7  1  0
  5  8  1  0
  7  2  1  0
  1  9  1  0
  1 10  1  0
  1 11  1  0
  3 12  1  0
  3 13  1  0
  4 14  1  0
  4 15  1  0
  6 16  1  0
  6 17  1  0
  7 18  1  0
  7 19  1  0
  8 20  1  0
  8 21  1  0
  8 22  1  0
M  END
$$$$
