
     RDKit          3D

 41 40  0  0  0  0  0  0  0  0999 V2000
   -6.0271    1.9759   -1.2507 C   0  0  0  0  0  0  0  0  0  0  0  0
   -4.8958    1.0655   -1.6825 C   0  0  0  0  0  0  0  0  0  0  0  0
   -4.4215    0.3659   -0.5433 O   0  0  0  0  0  0  0  0  0  0  0  0
   -2.9427   -0.3077   -0.5919 P   0  0  0  0  0  5  0  0  0  0  0  0
   -2.7483   -1.6597   -1.9844 S   0  0  0  0  0  0  0  0  0  0  0  0
   -2.8910   -0.9522    0.9010 O   0  0  0  0  0  0  0  0  0  0  0  0
   -3.9600   -1.7746    1.3415 C   0  0  0  0  0  0  0  0  0  0  0  0
   -3.5374   -2.4634    2.6232 C   0  0  0  0  0  0  0  0  0  0  0  0
   -1.5501    1.2658   -0.5283 S   0  0  0  0  0  0  0  0  0  0  0  0
   -0.0422    0.3997   -0.0524 C   0  0  0  0  0  0  0  0  0  0  0  0
    1.3363    1.5534    0.0858 S   0  0  0  0  0  0  0  0  0  0  0  0
    2.9115    0.2717    0.6300 P   0  0  0  0  0  5  0  0  0  0  0  0
    2.8614   -0.5591    2.3945 S   0  0  0  0  0  0  0  0  0  0  0  0
    2.9740   -0.8232   -0.5716 O   0  0  0  0  0  0  0  0  0  0  0  0
    4.0567   -1.7387   -0.6264 C   0  0  0  0  0  0  0  0  0  0  0  0
    4.0829   -2.3665   -2.0053 C   0  0  0  0  0  0  0  0  0  0  0  0
    4.2946    1.0714    0.3294 O   0  0  0  0  0  0  0  0  0  0  0  0
    4.6566    2.1583    1.1657 C   0  0  0  0  0  0  0  0  0  0  0  0
    5.6607    3.0193    0.4272 C   0  0  0  0  0  0  0  0  0  0  0  0
   -6.4310    2.5283   -2.1037 H   0  0  0  0  0  0  0  0  0  0  0  0
   -5.6795    2.6917   -0.4984 H   0  0  0  0  0  0  0  0  0  0  0  0
   -6.8343    1.3967   -0.7902 H   0  0  0  0  0  0  0  0  0  0  0  0
   -5.2601    0.3431   -2.4190 H   0  0  0  0  0  0  0  0  0  0  0  0
   -4.0934    1.6561   -2.1340 H   0  0  0  0  0  0  0  0  0  0  0  0
   -4.8406   -1.1522    1.5270 H   0  0  0  0  0  0  0  0  0  0  0  0
   -4.2078   -2.5219    0.5827 H   0  0  0  0  0  0  0  0  0  0  0  0
   -4.3383   -3.1025    3.0054 H   0  0  0  0  0  0  0  0  0  0  0  0
   -3.2768   -1.7263    3.3900 H   0  0  0  0  0  0  0  0  0  0  0  0
   -2.6458   -3.0765    2.4548 H   0  0  0  0  0  0  0  0  0  0  0  0
   -0.1989   -0.0967    0.9084 H   0  0  0  0  0  0  0  0  0  0  0  0
    0.1951   -0.3579   -0.8032 H   0  0  0  0  0  0  0  0  0  0  0  0
    5.0038   -1.2261   -0.4340 H   0  0  0  0  0  0  0  0  0  0  0  0
    3.9121   -2.5150    0.1307 H   0  0  0  0  0  0  0  0  0  0  0  0
    3.1368   -2.8766   -2.2153 H   0  0  0  0  0  0  0  0  0  0  0  0
    4.2083   -1.5985   -2.7758 H   0  0  0  0  0  0  0  0  0  0  0  0
    4.8998   -3.0886   -2.0902 H   0  0  0  0  0  0  0  0  0  0  0  0
    3.7768    2.7531    1.4281 H   0  0  0  0  0  0  0  0  0  0  0  0
    5.1053    1.7677    2.0839 H   0  0  0  0  0  0  0  0  0  0  0  0
    6.5438    2.4331    0.1523 H   0  0  0  0  0  0  0  0  0  0  0  0
    5.9767    3.8660    1.0429 H   0  0  0  0  0  0  0  0  0  0  0  0
    5.2292    3.4011   -0.5040 H   0  0  0  0  0  0  0  0  0  0  0  0
  1  2  1  0
  2  3  1  0
  3  4  1  0
  4  5  2  0
  4  6  1  0
  6  7  1  0
  7  8  1  0
  4  9  1  0
  9 10  1  0
 10 11  1  0
 11 12  1  0
 12 13  2  0
 12 14  1  0
 14 15  1  0
 15 16  1  0
 12 17  1  0
 17 18  1  0
 18 19  1  0
  1 20  1  0
  1 21  1  0
  1 22  1  0
  2 23  1  0
  2 24  1  0
  7 25  1  0
  7 26  1  0
  8 27  1  0
  8 28  1  0
  8 29  1  0
 10 30  1  0
 10 31  1  0
 15 32  1  0
 15 33  1  0
 16 34  1  0
 16 35  1  0
 16 36  1  0
 18 37  1  0
 18 38  1  0
 19 39  1  0
 19 40  1  0
 19 41  1  0
M  END
$$$$
