
     RDKit          3D

 14 14  0  0  0  0  0  0  0  0999 V2000
   -1.9108    0.0376    0.0126 C   0  0  0  0  0  0  0  0  0  0  0  0
   -1.1906    1.2273    0.1341 C   0  0  0  0  0  0  0  0  0  0  0  0
    0.2052    1.2040    0.1253 C   0  0  0  0  0  0  0  0  0  0  0  0
    0.8739   -0.0165   -0.0057 C   0  0  0  0  0  0  0  0  0  0  0  0
    0.1549   -1.2089   -0.1274 C   0  0  0  0  0  0  0  0  0  0  0  0
   -1.2398   -1.1792   -0.1180 C   0  0  0  0  0  0  0  0  0  0  0  0
    2.3503   -0.0355   -0.0144 C   0  0  0  0  0  0  0  0  0  0  0  0
    2.9905   -1.0735   -0.1261 O   0  0  0  0  0  0  0  0  0  0  0  0
   -2.9982    0.0581    0.0197 H   0  0  0  0  0  0  0  0  0  0  0  0
   -1.7193    2.1721    0.2355 H   0  0  0  0  0  0  0  0  0  0  0  0
    0.7544    2.1368    0.2206 H   0  0  0  0  0  0  0  0  0  0  0  0
    0.6772   -2.1579   -0.2293 H   0  0  0  0  0  0  0  0  0  0  0  0
   -1.8028   -2.1046   -0.2124 H   0  0  0  0  0  0  0  0  0  0  0  0
    2.8550    0.9400    0.0855 H   0  0  0  0  0  0  0  0  0  0  0  0
  1  2  2  0
  2  3  1  0
  3  4  2  0
  4  5  1  0
  5  6  2  0
  4  7  1  0
  7  8  2  0
  6  1  1  0
  1  9  1  0
  2 10  1  0
  3 11  1  0
  5 12  1  0
  6 13  1  0
  7 14  1  0
M  END
$$$$
