
     RDKit          3D

 22 23  0  0  0  0  0  0  0  0999 V2000
    0.7345    0.1269    0.0185 C   0  0  0  0  0  0  0  0  0  0  0  0
    1.4273    0.5504   -1.1405 C   0  0  0  0  0  0  0  0  0  0  0  0
    2.8143    0.7907   -1.1085 C   0  0  0  0  0  0  0  0  0  0  0  0
    3.5291    0.6096    0.0890 C   0  0  0  0  0  0  0  0  0  0  0  0
    2.8587    0.1892    1.2516 C   0  0  0  0  0  0  0  0  0  0  0  0
    1.4716   -0.0497    1.2136 C   0  0  0  0  0  0  0  0  0  0  0  0
    0.6292   -0.5717    2.6504 Cl  0  0  0  0  0  0  0  0  0  0  0  0
    3.7388   -0.0368    2.7374 Cl  0  0  0  0  0  0  0  0  0  0  0  0
    5.2458    0.9061    0.1323 Cl  0  0  0  0  0  0  0  0  0  0  0  0
    3.6394    1.3112   -2.5513 Cl  0  0  0  0  0  0  0  0  0  0  0  0
    0.5301    0.7720   -2.6212 Cl  0  0  0  0  0  0  0  0  0  0  0  0
   -0.7345   -0.1269   -0.0185 C   0  0  0  0  0  0  0  0  0  0  0  0
   -1.6572    0.9086    0.2628 C   0  0  0  0  0  0  0  0  0  0  0  0
   -3.0448    0.6720    0.2285 C   0  0  0  0  0  0  0  0  0  0  0  0
   -3.5291   -0.6096   -0.0890 C   0  0  0  0  0  0  0  0  0  0  0  0
   -2.6282   -1.6519   -0.3716 C   0  0  0  0  0  0  0  0  0  0  0  0
   -1.2417   -1.4093   -0.3359 C   0  0  0  0  0  0  0  0  0  0  0  0
   -0.1145   -2.6954   -0.6849 Cl  0  0  0  0  0  0  0  0  0  0  0  0
   -3.2224   -3.2410   -0.7655 Cl  0  0  0  0  0  0  0  0  0  0  0  0
   -5.2458   -0.9061   -0.1323 Cl  0  0  0  0  0  0  0  0  0  0  0  0
   -4.1558    1.9665    0.5794 Cl  0  0  0  0  0  0  0  0  0  0  0  0
   -1.0448    2.4952    0.6557 Cl  0  0  0  0  0  0  0  0  0  0  0  0
  1  2  2  0
  2  3  1  0
  3  4  2  0
  4  5  1  0
  5  6  2  0
  6  7  1  0
  5  8  1  0
  4  9  1  0
  3 10  1  0
  2 11  1  0
  1 12  1  0
 12 13  2  0
 13 14  1  0
 14 15  2  0
 15 16  1  0
 16 17  2  0
 17 18  1  0
 16 19  1  0
 15 20  1  0
 14 21  1  0
 13 22  1  0
  6  1  1  0
 17 12  1  0
M  END
$$$$
