
     RDKit          3D

 12 12  0  0  0  0  0  0  0  0999 V2000
   -1.2217    0.6608   -0.1283 C   0  0  0  0  0  0  0  0  0  0  0  0
   -1.1911   -0.7255    0.0226 C   0  0  0  0  0  0  0  0  0  0  0  0
    0.0306   -1.3863    0.1509 C   0  0  0  0  0  0  0  0  0  0  0  0
    1.2217   -0.6608    0.1283 C   0  0  0  0  0  0  0  0  0  0  0  0
    1.1911    0.7255   -0.0226 C   0  0  0  0  0  0  0  0  0  0  0  0
   -0.0306    1.3863   -0.1509 C   0  0  0  0  0  0  0  0  0  0  0  0
   -2.1735    1.1756   -0.2282 H   0  0  0  0  0  0  0  0  0  0  0  0
   -2.1191   -1.2908    0.0403 H   0  0  0  0  0  0  0  0  0  0  0  0
    0.0544   -2.4664    0.2685 H   0  0  0  0  0  0  0  0  0  0  0  0
    2.1735   -1.1756    0.2282 H   0  0  0  0  0  0  0  0  0  0  0  0
    2.1191    1.2908   -0.0403 H   0  0  0  0  0  0  0  0  0  0  0  0
   -0.0544    2.4664   -0.2685 H   0  0  0  0  0  0  0  0  0  0  0  0
  1  2  2  0
  2  3  1  0
  3  4  2  0
  4  5  1  0
  5  6  2  0
  6  1  1  0
  1  7  1  0
  2  8  1  0
  3  9  1  0
  4 10  1  0
  5 11  1  0
  6 12  1  0
M  END
$$$$
