
     RDKit          3D

 16 15  0  0  0  0  0  0  0  0999 V2000
   -1.7201    0.1365   -0.5773 C   0  0  0  0  0  0  0  0  0  0  0  0
   -0.5831   -0.4409    0.2209 C   0  0  0  0  0  0  0  0  0  0  0  0
   -0.7936   -1.3703    1.1680 C   0  0  0  0  0  0  0  0  0  0  0  0
    0.7576    0.0532   -0.0803 C   0  0  0  0  0  0  0  0  0  0  0  0
    1.7630   -0.7836   -0.3869 C   0  0  0  0  0  0  0  0  0  0  0  0
    0.9645    1.5425   -0.0316 C   0  0  0  0  0  0  0  0  0  0  0  0
   -2.6639   -0.3819   -0.3749 H   0  0  0  0  0  0  0  0  0  0  0  0
   -1.5225    0.0460   -1.6509 H   0  0  0  0  0  0  0  0  0  0  0  0
   -1.8692    1.1942   -0.3367 H   0  0  0  0  0  0  0  0  0  0  0  0
    0.0219   -1.7839    1.7537 H   0  0  0  0  0  0  0  0  0  0  0  0
   -1.7906   -1.7369    1.3904 H   0  0  0  0  0  0  0  0  0  0  0  0
    1.6174   -1.8587   -0.4328 H   0  0  0  0  0  0  0  0  0  0  0  0
    2.7589   -0.4149   -0.6102 H   0  0  0  0  0  0  0  0  0  0  0  0
    0.4135    2.0404   -0.8362 H   0  0  0  0  0  0  0  0  0  0  0  0
    0.6253    1.9477    0.9280 H   0  0  0  0  0  0  0  0  0  0  0  0
    2.0210    1.8105   -0.1431 H   0  0  0  0  0  0  0  0  0  0  0  0
  1  2  1  0
  2  3  2  3
  2  4  1  0
  4  5  2  3
  4  6  1  0
  1  7  1  0
  1  8  1  0
  1  9  1  0
  3 10  1  0
  3 11  1  0
  5 12  1  0
  5 13  1  0
  6 14  1  0
  6 15  1  0
  6 16  1  0
M  END
$$$$
