
     RDKit          3D

 22 21  0  0  0  0  0  0  0  0999 V2000
    2.0852   -0.6130   -0.7717 C   0  0  0  0  0  0  0  0  0  0  0  0
    1.2349    0.4657   -0.1116 C   0  0  0  0  0  0  0  0  0  0  0  0
    2.0320    1.2219    0.9471 C   0  0  0  0  0  0  0  0  0  0  0  0
   -0.0119   -0.1729    0.4974 C   0  0  0  0  0  0  0  0  0  0  0  0
   -0.0379   -0.5496    1.6699 O   0  0  0  0  0  0  0  0  0  0  0  0
   -1.2249   -0.3215   -0.4191 C   0  0  0  0  0  0  0  0  0  0  0  0
   -2.0542   -1.5424   -0.0314 C   0  0  0  0  0  0  0  0  0  0  0  0
   -2.0619    0.9507   -0.3614 C   0  0  0  0  0  0  0  0  0  0  0  0
    2.4101   -1.3639   -0.0428 H   0  0  0  0  0  0  0  0  0  0  0  0
    2.9768   -0.1783   -1.2351 H   0  0  0  0  0  0  0  0  0  0  0  0
    1.5217   -1.1369   -1.5510 H   0  0  0  0  0  0  0  0  0  0  0  0
    0.9122    1.1895   -0.8690 H   0  0  0  0  0  0  0  0  0  0  0  0
    2.8860    1.7374    0.4955 H   0  0  0  0  0  0  0  0  0  0  0  0
    1.4057    1.9722    1.4420 H   0  0  0  0  0  0  0  0  0  0  0  0
    2.4148    0.5476    1.7212 H   0  0  0  0  0  0  0  0  0  0  0  0
   -0.8627   -0.4733   -1.4424 H   0  0  0  0  0  0  0  0  0  0  0  0
   -2.4763   -1.4398    0.9744 H   0  0  0  0  0  0  0  0  0  0  0  0
   -2.8826   -1.6875   -0.7326 H   0  0  0  0  0  0  0  0  0  0  0  0
   -1.4386   -2.4484   -0.0411 H   0  0  0  0  0  0  0  0  0  0  0  0
   -1.4743    1.8230   -0.6667 H   0  0  0  0  0  0  0  0  0  0  0  0
   -2.9285    0.8785   -1.0265 H   0  0  0  0  0  0  0  0  0  0  0  0
   -2.4255    1.1411    0.6546 H   0  0  0  0  0  0  0  0  0  0  0  0
  1  2  1  0
  2  3  1  0
  2  4  1  0
  4  5  2  0
  4  6  1  0
  6  7  1  0
  6  8  1  0
  1  9  1  0
  1 10  1  0
  1 11  1  0
  2 12  1  0
  3 13  1  0
  3 14  1  0
  3 15  1  0
  6 16  1  0
  7 17  1  0
  7 18  1  0
  7 19  1  0
  8 20  1  0
  8 21  1  0
  8 22  1  0
M  END
$$$$
