
     RDKit          3D

 18 17  0  0  0  0  0  0  0  0999 V2000
   -0.8774    1.6409   -0.1534 C   0  0  0  0  0  0  0  0  0  0  0  0
   -0.2184    0.2628    0.0016 C   0  0  0  0  0  0  0  0  0  0  0  0
   -1.0050   -0.7570   -0.8305 C   0  0  0  0  0  0  0  0  0  0  0  0
   -0.2248   -0.1232    1.4856 C   0  0  0  0  0  0  0  0  0  0  0  0
    1.1185    0.4296   -0.4943 O   0  0  0  0  0  0  0  0  0  0  0  0
    1.9623   -0.7112   -0.4664 C   0  0  0  0  0  0  0  0  0  0  0  0
   -0.3245    2.4025    0.4088 H   0  0  0  0  0  0  0  0  0  0  0  0
   -0.8670    1.9619   -1.2017 H   0  0  0  0  0  0  0  0  0  0  0  0
   -1.9151    1.6386    0.1967 H   0  0  0  0  0  0  0  0  0  0  0  0
   -2.0665   -0.7600   -0.5605 H   0  0  0  0  0  0  0  0  0  0  0  0
   -0.9176   -0.5376   -1.9005 H   0  0  0  0  0  0  0  0  0  0  0  0
   -0.6267   -1.7741   -0.6830 H   0  0  0  0  0  0  0  0  0  0  0  0
   -1.2362   -0.0855    1.9044 H   0  0  0  0  0  0  0  0  0  0  0  0
    0.4185    0.5477    2.0659 H   0  0  0  0  0  0  0  0  0  0  0  0
    0.1554   -1.1388    1.6388 H   0  0  0  0  0  0  0  0  0  0  0  0
    2.1227   -1.0638    0.5553 H   0  0  0  0  0  0  0  0  0  0  0  0
    1.5675   -1.5147   -1.0928 H   0  0  0  0  0  0  0  0  0  0  0  0
    2.9343   -0.4182   -0.8740 H   0  0  0  0  0  0  0  0  0  0  0  0
  1  2  1  0
  2  3  1  0
  2  4  1  0
  2  5  1  0
  5  6  1  0
  1  7  1  0
  1  8  1  0
  1  9  1  0
  3 10  1  0
  3 11  1  0
  3 12  1  0
  4 13  1  0
  4 14  1  0
  4 15  1  0
  6 16  1  0
  6 17  1  0
  6 18  1  0
M  END
$$$$
