
     RDKit          3D

 10  9  0  0  0  0  0  0  0  0999 V2000
   -1.1107    0.2601    0.2416 C   0  0  0  0  0  0  0  0  0  0  0  0
    0.1104   -0.5881   -0.0567 C   0  0  0  0  0  0  0  0  0  0  0  0
    1.3569    0.2368   -0.2629 C   0  0  0  0  0  0  0  0  0  0  0  0
    1.4030    1.4607   -0.2012 O   0  0  0  0  0  0  0  0  0  0  0  0
   -1.9907   -0.3745    0.3841 H   0  0  0  0  0  0  0  0  0  0  0  0
   -0.9651    0.8530    1.1507 H   0  0  0  0  0  0  0  0  0  0  0  0
   -1.3180    0.9536   -0.5801 H   0  0  0  0  0  0  0  0  0  0  0  0
   -0.0541   -1.1775   -0.9643 H   0  0  0  0  0  0  0  0  0  0  0  0
    0.2998   -1.2785    0.7714 H   0  0  0  0  0  0  0  0  0  0  0  0
    2.2684   -0.3456   -0.4826 H   0  0  0  0  0  0  0  0  0  0  0  0
  1  2  1  0
  2  3  1  0
  3  4  2  0
  1  5  1  0
  1  6  1  0
  1  7  1  0
  2  8  1  0
  2  9  1  0
  3 10  1  0
M  END
$$$$
