
     RDKit          3D

 22 24  0  0  0  0  0  0  0  0999 V2000
    3.5448    0.8011   -0.1465 C   0  0  0  0  0  0  0  0  0  0  0  0
    2.3187    1.3375   -0.5456 C   0  0  0  0  0  0  0  0  0  0  0  0
    1.1376    0.6653   -0.2336 C   0  0  0  0  0  0  0  0  0  0  0  0
    1.1789   -0.5369    0.4733 C   0  0  0  0  0  0  0  0  0  0  0  0
    2.3999   -1.0767    0.8740 C   0  0  0  0  0  0  0  0  0  0  0  0
    3.5790   -0.4025    0.5607 C   0  0  0  0  0  0  0  0  0  0  0  0
    5.0924   -1.0592    1.0501 Cl  0  0  0  0  0  0  0  0  0  0  0  0
    0.0416   -1.2315    0.8014 O   0  0  0  0  0  0  0  0  0  0  0  0
   -1.1376   -0.6653    0.3882 C   0  0  0  0  0  0  0  0  0  0  0  0
   -2.3187   -1.3375    0.7001 C   0  0  0  0  0  0  0  0  0  0  0  0
   -3.5448   -0.8011    0.3010 C   0  0  0  0  0  0  0  0  0  0  0  0
   -3.5790    0.4025   -0.4062 C   0  0  0  0  0  0  0  0  0  0  0  0
   -2.3999    1.0767   -0.7194 C   0  0  0  0  0  0  0  0  0  0  0  0
   -1.1789    0.5369   -0.3188 C   0  0  0  0  0  0  0  0  0  0  0  0
   -0.0416    1.2315   -0.6468 O   0  0  0  0  0  0  0  0  0  0  0  0
   -5.0924    1.0592   -0.8956 Cl  0  0  0  0  0  0  0  0  0  0  0  0
    4.4666    1.3238   -0.3888 H   0  0  0  0  0  0  0  0  0  0  0  0
    2.2855    2.2738   -1.0961 H   0  0  0  0  0  0  0  0  0  0  0  0
    2.4261   -2.0126    1.4239 H   0  0  0  0  0  0  0  0  0  0  0  0
   -2.2855   -2.2737    1.2507 H   0  0  0  0  0  0  0  0  0  0  0  0
   -4.4666   -1.3238    0.5434 H   0  0  0  0  0  0  0  0  0  0  0  0
   -2.4260    2.0126   -1.2694 H   0  0  0  0  0  0  0  0  0  0  0  0
  1  2  2  0
  2  3  1  0
  3  4  2  0
  4  5  1  0
  5  6  2  0
  6  7  1  0
  4  8  1  0
  8  9  1  0
  9 10  2  0
 10 11  1  0
 11 12  2  0
 12 13  1  0
 13 14  2  0
 14 15  1  0
 12 16  1  0
  6  1  1  0
 15  3  1  0
 14  9  1  0
  1 17  1  0
  2 18  1  0
  5 19  1  0
 10 20  1  0
 11 21  1  0
 13 22  1  0
M  END
$$$$
