
     RDKit          3D

 19 19  0  0  0  0  0  0  0  0999 V2000
    2.5311   -0.8670    0.0063 C   0  0  0  0  0  0  0  0  0  0  0  0
    1.2627   -0.0658    0.0811 C   0  0  0  0  0  0  0  0  0  0  0  0
    1.3113    1.3020    0.3758 C   0  0  0  0  0  0  0  0  0  0  0  0
    0.1379    2.0500    0.4465 C   0  0  0  0  0  0  0  0  0  0  0  0
   -1.0959    1.4387    0.2235 C   0  0  0  0  0  0  0  0  0  0  0  0
   -1.1757    0.0700   -0.0737 C   0  0  0  0  0  0  0  0  0  0  0  0
    0.0157   -0.6694   -0.1412 C   0  0  0  0  0  0  0  0  0  0  0  0
    0.0178   -2.0091   -0.4260 O   0  0  0  0  0  0  0  0  0  0  0  0
   -2.5234   -0.5493   -0.3070 C   0  0  0  0  0  0  0  0  0  0  0  0
    2.5172   -1.6698    0.7506 H   0  0  0  0  0  0  0  0  0  0  0  0
    3.4109   -0.2458    0.2047 H   0  0  0  0  0  0  0  0  0  0  0  0
    2.6485   -1.2989   -0.9928 H   0  0  0  0  0  0  0  0  0  0  0  0
    2.2653    1.7932    0.5521 H   0  0  0  0  0  0  0  0  0  0  0  0
    0.1846    3.1115    0.6758 H   0  0  0  0  0  0  0  0  0  0  0  0
   -1.9983    2.0432    0.2840 H   0  0  0  0  0  0  0  0  0  0  0  0
   -0.8923   -2.3123   -0.5591 H   0  0  0  0  0  0  0  0  0  0  0  0
   -3.3292    0.1863   -0.2112 H   0  0  0  0  0  0  0  0  0  0  0  0
   -2.7096   -1.3393    0.4276 H   0  0  0  0  0  0  0  0  0  0  0  0
   -2.5782   -0.9683   -1.3169 H   0  0  0  0  0  0  0  0  0  0  0  0
  1  2  1  0
  2  3  2  0
  3  4  1  0
  4  5  2  0
  5  6  1  0
  6  7  2  0
  7  8  1  0
  6  9  1  0
  7  2  1  0
  1 10  1  0
  1 11  1  0
  1 12  1  0
  3 13  1  0
  4 14  1  0
  5 15  1  0
  8 16  1  0
  9 17  1  0
  9 18  1  0
  9 19  1  0
M  END
$$$$
