
     RDKit          3D

 28 30  0  0  0  0  0  0  0  0999 V2000
    4.0385    0.0601   -0.7959 C   0  0  0  0  0  0  0  0  0  0  0  0
    3.8019   -1.3112   -0.8793 C   0  0  0  0  0  0  0  0  0  0  0  0
    2.5283   -1.8165   -0.6130 C   0  0  0  0  0  0  0  0  0  0  0  0
    1.4853   -0.9462   -0.2684 C   0  0  0  0  0  0  0  0  0  0  0  0
    1.7211    0.4205   -0.1853 C   0  0  0  0  0  0  0  0  0  0  0  0
    3.0016    0.9267   -0.4463 C   0  0  0  0  0  0  0  0  0  0  0  0
    0.6341    1.3362    0.2010 C   0  0  0  0  0  0  0  0  0  0  0  0
    0.9047    2.5021    0.4767 O   0  0  0  0  0  0  0  0  0  0  0  0
   -0.7619    0.8290    0.2693 C   0  0  0  0  0  0  0  0  0  0  0  0
   -1.8356    1.7288    0.4499 C   0  0  0  0  0  0  0  0  0  0  0  0
   -3.1378    1.2218    0.4714 C   0  0  0  0  0  0  0  0  0  0  0  0
   -3.3746   -0.1502    0.3880 C   0  0  0  0  0  0  0  0  0  0  0  0
   -2.3163   -1.0567    0.2806 C   0  0  0  0  0  0  0  0  0  0  0  0
   -1.0003   -0.5526    0.1853 C   0  0  0  0  0  0  0  0  0  0  0  0
    0.1473   -1.4851    0.0295 C   0  0  0  0  0  0  0  0  0  0  0  0
    0.0074   -2.6982    0.1606 O   0  0  0  0  0  0  0  0  0  0  0  0
   -2.6300   -2.4062    0.0386 N   0  0  0  0  0  0  0  0  0  0  0  0
   -1.6757    3.1240    0.3747 N   0  0  0  0  0  0  0  0  0  0  0  0
    5.0313    0.4553   -0.9995 H   0  0  0  0  0  0  0  0  0  0  0  0
    4.6097   -1.9884   -1.1480 H   0  0  0  0  0  0  0  0  0  0  0  0
    2.3524   -2.8892   -0.6742 H   0  0  0  0  0  0  0  0  0  0  0  0
    3.1954    1.9958   -0.3773 H   0  0  0  0  0  0  0  0  0  0  0  0
   -3.9871    1.8996    0.5220 H   0  0  0  0  0  0  0  0  0  0  0  0
   -4.4023   -0.5066    0.3758 H   0  0  0  0  0  0  0  0  0  0  0  0
   -3.4584   -2.7462    0.5143 H   0  0  0  0  0  0  0  0  0  0  0  0
   -1.8184   -3.0219    0.1774 H   0  0  0  0  0  0  0  0  0  0  0  0
   -2.3525    3.6628    0.9038 H   0  0  0  0  0  0  0  0  0  0  0  0
   -0.7081    3.4126    0.5684 H   0  0  0  0  0  0  0  0  0  0  0  0
  1  2  2  0
  2  3  1  0
  3  4  2  0
  4  5  1  0
  5  6  2  0
  5  7  1  0
  7  8  2  0
  7  9  1  0
  9 10  2  0
 10 11  1  0
 11 12  2  0
 12 13  1  0
 13 14  2  0
 14 15  1  0
 15 16  2  0
 13 17  1  0
 10 18  1  0
  6  1  1  0
 15  4  1  0
 14  9  1  0
  1 19  1  0
  2 20  1  0
  3 21  1  0
  6 22  1  0
 11 23  1  0
 12 24  1  0
 17 25  1  0
 17 26  1  0
 18 27  1  0
 18 28  1  0
M  END
$$$$
