
     RDKit          3D

 28 27  0  0  0  0  0  0  0  0999 V2000
   -4.9094    0.0111   -0.5836 C   0  0  0  0  0  0  0  0  0  0  0  0
   -3.6688   -0.0732    0.2912 C   0  0  0  0  0  0  0  0  0  0  0  0
   -2.3897    0.0248   -0.5399 C   0  0  0  0  0  0  0  0  0  0  0  0
   -1.1442   -0.0603    0.3438 C   0  0  0  0  0  0  0  0  0  0  0  0
    0.1358    0.0377   -0.4878 C   0  0  0  0  0  0  0  0  0  0  0  0
    1.3811   -0.0474    0.3956 C   0  0  0  0  0  0  0  0  0  0  0  0
    2.6590    0.0504   -0.4343 C   0  0  0  0  0  0  0  0  0  0  0  0
    3.9138   -0.0312    0.4171 C   0  0  0  0  0  0  0  0  0  0  0  0
    3.8839   -0.1619    1.6397 O   0  0  0  0  0  0  0  0  0  0  0  0
    5.2236    0.0572   -0.3224 C   0  0  0  0  0  0  0  0  0  0  0  0
   -4.9429    0.9612   -1.1264 H   0  0  0  0  0  0  0  0  0  0  0  0
   -4.9300   -0.8035   -1.3146 H   0  0  0  0  0  0  0  0  0  0  0  0
   -5.8121   -0.0611    0.0310 H   0  0  0  0  0  0  0  0  0  0  0  0
   -3.6823   -1.0197    0.8440 H   0  0  0  0  0  0  0  0  0  0  0  0
   -3.6951    0.7352    1.0312 H   0  0  0  0  0  0  0  0  0  0  0  0
   -2.3832    0.9714   -1.0939 H   0  0  0  0  0  0  0  0  0  0  0  0
   -2.3704   -0.7834   -1.2811 H   0  0  0  0  0  0  0  0  0  0  0  0
   -1.1636    0.7480    1.0849 H   0  0  0  0  0  0  0  0  0  0  0  0
   -1.1508   -1.0070    0.8977 H   0  0  0  0  0  0  0  0  0  0  0  0
    0.1425    0.9844   -1.0416 H   0  0  0  0  0  0  0  0  0  0  0  0
    0.1553   -0.7707   -1.2288 H   0  0  0  0  0  0  0  0  0  0  0  0
    1.3618    0.7584    1.1400 H   0  0  0  0  0  0  0  0  0  0  0  0
    1.3746   -0.9923    0.9533 H   0  0  0  0  0  0  0  0  0  0  0  0
    2.6808    1.0031   -0.9750 H   0  0  0  0  0  0  0  0  0  0  0  0
    2.6938   -0.7663   -1.1638 H   0  0  0  0  0  0  0  0  0  0  0  0
    6.0532   -0.0123    0.3866 H   0  0  0  0  0  0  0  0  0  0  0  0
    5.2982   -0.7677   -1.0352 H   0  0  0  0  0  0  0  0  0  0  0  0
    5.2852    1.0149   -0.8451 H   0  0  0  0  0  0  0  0  0  0  0  0
  1  2  1  0
  2  3  1  0
  3  4  1  0
  4  5  1  0
  5  6  1  0
  6  7  1  0
  7  8  1  0
  8  9  2  0
  8 10  1  0
  1 11  1  0
  1 12  1  0
  1 13  1  0
  2 14  1  0
  2 15  1  0
  3 16  1  0
  3 17  1  0
  4 18  1  0
  4 19  1  0
  5 20  1  0
  5 21  1  0
  6 22  1  0
  6 23  1  0
  7 24  1  0
  7 25  1  0
 10 26  1  0
 10 27  1  0
 10 28  1  0
M  END
$$$$
