
     RDKit          3D

 20 19  0  0  0  0  0  0  0  0999 V2000
   -3.1267   -0.6692    0.3941 C   0  0  0  0  0  0  0  0  0  0  0  0
   -1.9481    0.2879    0.3133 C   0  0  0  0  0  0  0  0  0  0  0  0
   -0.6329   -0.4604    0.0978 C   0  0  0  0  0  0  0  0  0  0  0  0
    0.5502    0.5058    0.0171 C   0  0  0  0  0  0  0  0  0  0  0  0
    1.8672   -0.2430   -0.1987 C   0  0  0  0  0  0  0  0  0  0  0  0
    3.0457    0.7265   -0.2786 C   0  0  0  0  0  0  0  0  0  0  0  0
    4.8771   -0.3347   -0.5800 I   0  0  0  0  0  0  0  0  0  0  0  0
   -3.2262   -1.2479   -0.5297 H   0  0  0  0  0  0  0  0  0  0  0  0
   -3.0073   -1.3691    1.2273 H   0  0  0  0  0  0  0  0  0  0  0  0
   -4.0566   -0.1130    0.5484 H   0  0  0  0  0  0  0  0  0  0  0  0
   -2.1140    0.9939   -0.5087 H   0  0  0  0  0  0  0  0  0  0  0  0
   -1.8963    0.8733    1.2386 H   0  0  0  0  0  0  0  0  0  0  0  0
   -0.4738   -1.1682    0.9205 H   0  0  0  0  0  0  0  0  0  0  0  0
   -0.6915   -1.0477   -0.8267 H   0  0  0  0  0  0  0  0  0  0  0  0
    0.6086    1.0927    0.9418 H   0  0  0  0  0  0  0  0  0  0  0  0
    0.3909    1.2133   -0.8058 H   0  0  0  0  0  0  0  0  0  0  0  0
    1.8032   -0.8326   -1.1219 H   0  0  0  0  0  0  0  0  0  0  0  0
    2.0207   -0.9530    0.6237 H   0  0  0  0  0  0  0  0  0  0  0  0
    2.8960    1.4329   -1.1028 H   0  0  0  0  0  0  0  0  0  0  0  0
    3.1137    1.3123    0.6449 H   0  0  0  0  0  0  0  0  0  0  0  0
  1  2  1  0
  2  3  1  0
  3  4  1  0
  4  5  1  0
  5  6  1  0
  6  7  1  0
  1  8  1  0
  1  9  1  0
  1 10  1  0
  2 11  1  0
  2 12  1  0
  3 13  1  0
  3 14  1  0
  4 15  1  0
  4 16  1  0
  5 17  1  0
  5 18  1  0
  6 19  1  0
  6 20  1  0
M  END
$$$$
