
     RDKit          3D

  8  7  0  0  0  0  0  0  0  0999 V2000
   -0.7575   -0.2298   -0.0540 C   0  0  0  0  0  0  0  0  0  0  0  0
    0.7374    0.1654   -0.0781 C   0  0  0  0  0  0  0  0  0  0  0  0
    1.2861   -0.2187   -1.2708 F   0  0  0  0  0  0  0  0  0  0  0  0
    0.9781    1.9395    0.0635 Cl  0  0  0  0  0  0  0  0  0  0  0  0
    1.6798   -0.6448    1.2184 Cl  0  0  0  0  0  0  0  0  0  0  0  0
   -1.4184    0.3504   -1.0968 F   0  0  0  0  0  0  0  0  0  0  0  0
   -0.8957   -1.5746   -0.2365 F   0  0  0  0  0  0  0  0  0  0  0  0
   -1.6098    0.2127    1.4542 Cl  0  0  0  0  0  0  0  0  0  0  0  0
  1  2  1  0
  2  3  1  0
  2  4  1  0
  2  5  1  0
  1  6  1  0
  1  7  1  0
  1  8  1  0
M  END
$$$$
