
     RDKit          3D

 19 19  0  0  0  0  0  0  0  0999 V2000
   -2.4703   -1.0937   -0.1384 C   0  0  0  0  0  0  0  0  0  0  0  0
   -1.1763   -0.3351   -0.1036 C   0  0  0  0  0  0  0  0  0  0  0  0
    0.0450   -1.0140   -0.2271 C   0  0  0  0  0  0  0  0  0  0  0  0
    1.2628   -0.3211   -0.1725 C   0  0  0  0  0  0  0  0  0  0  0  0
    1.2498    1.0610    0.0437 C   0  0  0  0  0  0  0  0  0  0  0  0
    0.0399    1.7321    0.1810 C   0  0  0  0  0  0  0  0  0  0  0  0
   -1.1709    1.0485    0.1123 C   0  0  0  0  0  0  0  0  0  0  0  0
    0.0827    3.0796    0.3905 O   0  0  0  0  0  0  0  0  0  0  0  0
    2.5637   -1.0595   -0.2798 C   0  0  0  0  0  0  0  0  0  0  0  0
   -2.3919   -1.9698   -0.7907 H   0  0  0  0  0  0  0  0  0  0  0  0
   -2.7366   -1.4253    0.8698 H   0  0  0  0  0  0  0  0  0  0  0  0
   -3.2793   -0.4687   -0.5310 H   0  0  0  0  0  0  0  0  0  0  0  0
    0.0482   -2.0934   -0.3690 H   0  0  0  0  0  0  0  0  0  0  0  0
    2.1794    1.6201    0.1094 H   0  0  0  0  0  0  0  0  0  0  0  0
   -2.1116    1.5780    0.2284 H   0  0  0  0  0  0  0  0  0  0  0  0
   -0.8280    3.4080    0.4633 H   0  0  0  0  0  0  0  0  0  0  0  0
    2.4626   -1.9361   -0.9284 H   0  0  0  0  0  0  0  0  0  0  0  0
    3.3405   -0.4221   -0.7151 H   0  0  0  0  0  0  0  0  0  0  0  0
    2.8902   -1.3883    0.7116 H   0  0  0  0  0  0  0  0  0  0  0  0
  1  2  1  0
  2  3  2  0
  3  4  1  0
  4  5  2  0
  5  6  1  0
  6  7  2  0
  6  8  1  0
  4  9  1  0
  7  2  1  0
  1 10  1  0
  1 11  1  0
  1 12  1  0
  3 13  1  0
  5 14  1  0
  7 15  1  0
  8 16  1  0
  9 17  1  0
  9 18  1  0
  9 19  1  0
M  END
$$$$
