
     RDKit          3D

 26 25  0  0  0  0  0  0  0  0999 V2000
   -1.8741   -1.1036    0.1993 C   0  0  0  0  0  0  0  0  0  0  0  0
   -1.0973    0.0916    0.7579 C   0  0  0  0  0  0  0  0  0  0  0  0
   -2.0650    1.2520    1.0264 C   0  0  0  0  0  0  0  0  0  0  0  0
    0.1151    0.5229   -0.1278 C   0  0  0  0  0  0  0  0  0  0  0  0
   -0.3328    1.0137   -1.5160 C   0  0  0  0  0  0  0  0  0  0  0  0
    1.2178   -0.5798   -0.2577 C   0  0  0  0  0  0  0  0  0  0  0  0
    1.6888   -1.1060    1.1042 C   0  0  0  0  0  0  0  0  0  0  0  0
    2.4476   -0.0774   -1.0291 C   0  0  0  0  0  0  0  0  0  0  0  0
   -2.3278   -0.8750   -0.7701 H   0  0  0  0  0  0  0  0  0  0  0  0
   -1.2318   -1.9805    0.0793 H   0  0  0  0  0  0  0  0  0  0  0  0
   -2.6828   -1.3868    0.8824 H   0  0  0  0  0  0  0  0  0  0  0  0
   -0.7116   -0.1966    1.7429 H   0  0  0  0  0  0  0  0  0  0  0  0
   -2.6404    1.5245    0.1366 H   0  0  0  0  0  0  0  0  0  0  0  0
   -1.5263    2.1384    1.3769 H   0  0  0  0  0  0  0  0  0  0  0  0
   -2.7847    0.9736    1.8044 H   0  0  0  0  0  0  0  0  0  0  0  0
    0.5790    1.3834    0.3757 H   0  0  0  0  0  0  0  0  0  0  0  0
   -0.6858    0.1856   -2.1387 H   0  0  0  0  0  0  0  0  0  0  0  0
    0.4889    1.5056   -2.0455 H   0  0  0  0  0  0  0  0  0  0  0  0
   -1.1322    1.7563   -1.4495 H   0  0  0  0  0  0  0  0  0  0  0  0
    0.8105   -1.4286   -0.8209 H   0  0  0  0  0  0  0  0  0  0  0  0
    2.5328   -1.7950    0.9876 H   0  0  0  0  0  0  0  0  0  0  0  0
    0.8992   -1.6651    1.6145 H   0  0  0  0  0  0  0  0  0  0  0  0
    2.0105   -0.2864    1.7554 H   0  0  0  0  0  0  0  0  0  0  0  0
    2.8531    0.8343   -0.5777 H   0  0  0  0  0  0  0  0  0  0  0  0
    2.2081    0.1317   -2.0758 H   0  0  0  0  0  0  0  0  0  0  0  0
    3.2413   -0.8327   -1.0347 H   0  0  0  0  0  0  0  0  0  0  0  0
  1  2  1  0
  2  3  1  0
  2  4  1  0
  4  5  1  0
  4  6  1  0
  6  7  1  0
  6  8  1  0
  1  9  1  0
  1 10  1  0
  1 11  1  0
  2 12  1  0
  3 13  1  0
  3 14  1  0
  3 15  1  0
  4 16  1  0
  5 17  1  0
  5 18  1  0
  5 19  1  0
  6 20  1  0
  7 21  1  0
  7 22  1  0
  7 23  1  0
  8 24  1  0
  8 25  1  0
  8 26  1  0
M  END
$$$$
