
     RDKit          3D

 21 21  0  0  0  0  0  0  0  0999 V2000
   -2.4836   -0.7405   -0.0273 C   0  0  0  0  0  0  0  0  0  0  0  0
   -1.2430    0.1127   -0.0230 C   0  0  0  0  0  0  0  0  0  0  0  0
   -1.3909    1.5078   -0.0618 C   0  0  0  0  0  0  0  0  0  0  0  0
   -0.2778    2.3418   -0.0648 C   0  0  0  0  0  0  0  0  0  0  0  0
    0.9995    1.7921   -0.0361 C   0  0  0  0  0  0  0  0  0  0  0  0
    1.1821    0.4010    0.0030 C   0  0  0  0  0  0  0  0  0  0  0  0
    0.0533   -0.4522    0.0414 C   0  0  0  0  0  0  0  0  0  0  0  0
    0.2311   -1.9505    0.0826 C   0  0  0  0  0  0  0  0  0  0  0  0
    2.5880   -0.1375    0.0271 C   0  0  0  0  0  0  0  0  0  0  0  0
   -3.3773   -0.1487   -0.2530 H   0  0  0  0  0  0  0  0  0  0  0  0
   -2.4134   -1.5182   -0.7947 H   0  0  0  0  0  0  0  0  0  0  0  0
   -2.6270   -1.2031    0.9542 H   0  0  0  0  0  0  0  0  0  0  0  0
   -2.3820    1.9551   -0.0932 H   0  0  0  0  0  0  0  0  0  0  0  0
   -0.4057    3.4203   -0.0958 H   0  0  0  0  0  0  0  0  0  0  0  0
    1.8585    2.4594   -0.0477 H   0  0  0  0  0  0  0  0  0  0  0  0
   -0.5935   -2.4420    0.6076 H   0  0  0  0  0  0  0  0  0  0  0  0
    1.1366   -2.2363    0.6262 H   0  0  0  0  0  0  0  0  0  0  0  0
    0.2889   -2.3454   -0.9364 H   0  0  0  0  0  0  0  0  0  0  0  0
    3.3226    0.6480   -0.1811 H   0  0  0  0  0  0  0  0  0  0  0  0
    2.8150   -0.5559    1.0126 H   0  0  0  0  0  0  0  0  0  0  0  0
    2.7184   -0.9079   -0.7396 H   0  0  0  0  0  0  0  0  0  0  0  0
  1  2  1  0
  2  3  2  0
  3  4  1  0
  4  5  2  0
  5  6  1  0
  6  7  2  0
  7  8  1  0
  6  9  1  0
  7  2  1  0
  1 10  1  0
  1 11  1  0
  1 12  1  0
  3 13  1  0
  4 14  1  0
  5 15  1  0
  8 16  1  0
  8 17  1  0
  8 18  1  0
  9 19  1  0
  9 20  1  0
  9 21  1  0
M  END
$$$$
