
     RDKit          3D

 21 21  0  0  0  0  0  0  0  0999 V2000
    2.3981    0.3800    0.1230 C   0  0  0  0  0  0  0  0  0  0  0  0
    0.9237    0.1233    0.4287 C   0  0  0  0  0  0  0  0  0  0  0  0
    0.0581    1.2950   -0.0542 C   0  0  0  0  0  0  0  0  0  0  0  0
   -1.4268    1.0381    0.1924 C   0  0  0  0  0  0  0  0  0  0  0  0
   -1.8816   -0.2779   -0.4308 C   0  0  0  0  0  0  0  0  0  0  0  0
   -1.0251   -1.4484    0.0423 C   0  0  0  0  0  0  0  0  0  0  0  0
    0.4604   -1.1956   -0.2046 C   0  0  0  0  0  0  0  0  0  0  0  0
    3.0204   -0.4400    0.4966 H   0  0  0  0  0  0  0  0  0  0  0  0
    2.7387    1.3040    0.6019 H   0  0  0  0  0  0  0  0  0  0  0  0
    2.5717    0.4731   -0.9545 H   0  0  0  0  0  0  0  0  0  0  0  0
    0.8150    0.0400    1.5184 H   0  0  0  0  0  0  0  0  0  0  0  0
    0.3556    2.2166    0.4600 H   0  0  0  0  0  0  0  0  0  0  0  0
    0.2214    1.4627   -1.1266 H   0  0  0  0  0  0  0  0  0  0  0  0
   -1.6185    1.0162    1.2723 H   0  0  0  0  0  0  0  0  0  0  0  0
   -2.0170    1.8643   -0.2198 H   0  0  0  0  0  0  0  0  0  0  0  0
   -2.9315   -0.4629   -0.1775 H   0  0  0  0  0  0  0  0  0  0  0  0
   -1.8247   -0.2028   -1.5238 H   0  0  0  0  0  0  0  0  0  0  0  0
   -1.3339   -2.3637   -0.4750 H   0  0  0  0  0  0  0  0  0  0  0  0
   -1.1935   -1.6145    1.1135 H   0  0  0  0  0  0  0  0  0  0  0  0
    0.6478   -1.1766   -1.2859 H   0  0  0  0  0  0  0  0  0  0  0  0
    1.0417   -2.0310    0.2035 H   0  0  0  0  0  0  0  0  0  0  0  0
  1  2  1  0
  2  3  1  0
  3  4  1  0
  4  5  1  0
  5  6  1  0
  6  7  1  0
  7  2  1  0
  1  8  1  0
  1  9  1  0
  1 10  1  0
  2 11  1  0
  3 12  1  0
  3 13  1  0
  4 14  1  0
  4 15  1  0
  5 16  1  0
  5 17  1  0
  6 18  1  0
  6 19  1  0
  7 20  1  0
  7 21  1  0
M  END
$$$$
