
     RDKit          3D

 17 16  0  0  0  0  0  0  0  0999 V2000
   -1.1486    0.2121    1.2909 C   0  0  0  0  0  0  0  0  0  0  0  0
   -0.7000    0.3826   -0.1621 C   0  0  0  0  0  0  0  0  0  0  0  0
   -1.6978   -0.2837   -1.1071 C   0  0  0  0  0  0  0  0  0  0  0  0
    0.7077   -0.1857   -0.3825 C   0  0  0  0  0  0  0  0  0  0  0  0
    1.6413    0.5452    0.4252 O   0  0  0  0  0  0  0  0  0  0  0  0
    2.9220    0.1131    0.3203 C   0  0  0  0  0  0  0  0  0  0  0  0
    3.3272   -0.8043   -0.3748 O   0  0  0  0  0  0  0  0  0  0  0  0
   -2.1542    0.6211    1.4363 H   0  0  0  0  0  0  0  0  0  0  0  0
   -0.4764    0.7374    1.9771 H   0  0  0  0  0  0  0  0  0  0  0  0
   -1.1687   -0.8446    1.5784 H   0  0  0  0  0  0  0  0  0  0  0  0
   -0.6787    1.4591   -0.3749 H   0  0  0  0  0  0  0  0  0  0  0  0
   -1.4059   -0.1309   -2.1514 H   0  0  0  0  0  0  0  0  0  0  0  0
   -2.6998    0.1383   -0.9757 H   0  0  0  0  0  0  0  0  0  0  0  0
   -1.7579   -1.3623   -0.9261 H   0  0  0  0  0  0  0  0  0  0  0  0
    0.7376   -1.2477   -0.1088 H   0  0  0  0  0  0  0  0  0  0  0  0
    0.9906   -0.0780   -1.4368 H   0  0  0  0  0  0  0  0  0  0  0  0
    3.5616    0.7282    0.9720 H   0  0  0  0  0  0  0  0  0  0  0  0
  1  2  1  0
  2  3  1  0
  2  4  1  0
  4  5  1  0
  5  6  1  0
  6  7  2  0
  1  8  1  0
  1  9  1  0
  1 10  1  0
  2 11  1  0
  3 12  1  0
  3 13  1  0
  3 14  1  0
  4 15  1  0
  4 16  1  0
  6 17  1  0
M  END
$$$$
