
     RDKit          3D

 12 11  0  0  0  0  0  0  0  0999 V2000
   -1.9509    0.0507   -0.0866 C   0  0  0  0  0  0  0  0  0  0  0  0
   -0.6779   -0.2801   -0.6203 O   0  0  0  0  0  0  0  0  0  0  0  0
    0.3706    0.0337    0.2956 C   0  0  0  0  0  0  0  0  0  0  0  0
    1.7544   -0.2553   -0.3027 C   0  0  0  0  0  0  0  0  0  0  0  0
    2.1030    0.7715   -1.7308 Cl  0  0  0  0  0  0  0  0  0  0  0  0
    3.0642   -0.0247    0.8977 Cl  0  0  0  0  0  0  0  0  0  0  0  0
    0.1703   -0.7255    1.4054 F   0  0  0  0  0  0  0  0  0  0  0  0
    0.2450    1.3303    0.6714 F   0  0  0  0  0  0  0  0  0  0  0  0
   -2.0338    1.1283    0.0837 H   0  0  0  0  0  0  0  0  0  0  0  0
   -2.7121   -0.2390   -0.8164 H   0  0  0  0  0  0  0  0  0  0  0  0
   -2.1405   -0.4953    0.8424 H   0  0  0  0  0  0  0  0  0  0  0  0
    1.8077   -1.2947   -0.6392 H   0  0  0  0  0  0  0  0  0  0  0  0
  1  2  1  0
  2  3  1  0
  3  4  1  0
  4  5  1  0
  4  6  1  0
  3  7  1  0
  3  8  1  0
  1  9  1  0
  1 10  1  0
  1 11  1  0
  4 12  1  0
M  END
$$$$
