
     RDKit          3D

 24 24  0  0  0  0  0  0  0  0999 V2000
    2.7953   -0.7753   -0.5970 C   0  0  0  0  0  0  0  0  0  0  0  0
    1.5518   -0.0327   -0.2005 C   0  0  0  0  0  0  0  0  0  0  0  0
    1.4834    1.3065   -0.2717 C   0  0  0  0  0  0  0  0  0  0  0  0
    0.2720    2.0358    0.1746 C   0  0  0  0  0  0  0  0  0  0  0  0
    0.2438    3.2617    0.0903 O   0  0  0  0  0  0  0  0  0  0  0  0
   -0.8629    1.2459    0.7900 C   0  0  0  0  0  0  0  0  0  0  0  0
   -0.9719   -0.1779    0.2160 C   0  0  0  0  0  0  0  0  0  0  0  0
    0.4034   -0.8813    0.2898 C   0  0  0  0  0  0  0  0  0  0  0  0
   -1.4750   -0.1273   -1.2428 C   0  0  0  0  0  0  0  0  0  0  0  0
   -1.9929   -0.9799    1.0432 C   0  0  0  0  0  0  0  0  0  0  0  0
    3.5952   -0.0988   -0.9161 H   0  0  0  0  0  0  0  0  0  0  0  0
    2.5828   -1.4561   -1.4276 H   0  0  0  0  0  0  0  0  0  0  0  0
    3.1714   -1.3620    0.2474 H   0  0  0  0  0  0  0  0  0  0  0  0
    2.3006    1.9235   -0.6277 H   0  0  0  0  0  0  0  0  0  0  0  0
   -0.6864    1.2182    1.8724 H   0  0  0  0  0  0  0  0  0  0  0  0
   -1.7963    1.7951    0.6172 H   0  0  0  0  0  0  0  0  0  0  0  0
    0.6246   -1.1729    1.3252 H   0  0  0  0  0  0  0  0  0  0  0  0
    0.3602   -1.8105   -0.2935 H   0  0  0  0  0  0  0  0  0  0  0  0
   -1.5810   -1.1369   -1.6560 H   0  0  0  0  0  0  0  0  0  0  0  0
   -0.7954    0.4253   -1.8992 H   0  0  0  0  0  0  0  0  0  0  0  0
   -2.4560    0.3579   -1.3026 H   0  0  0  0  0  0  0  0  0  0  0  0
   -1.6907   -1.0427    2.0946 H   0  0  0  0  0  0  0  0  0  0  0  0
   -2.9834   -0.5123    1.0102 H   0  0  0  0  0  0  0  0  0  0  0  0
   -2.0924   -2.0032    0.6640 H   0  0  0  0  0  0  0  0  0  0  0  0
  1  2  1  0
  2  3  2  0
  3  4  1  0
  4  5  2  0
  4  6  1  0
  6  7  1  0
  7  8  1  0
  7  9  1  0
  7 10  1  0
  8  2  1  0
  1 11  1  0
  1 12  1  0
  1 13  1  0
  3 14  1  0
  6 15  1  0
  6 16  1  0
  8 17  1  0
  8 18  1  0
  9 19  1  0
  9 20  1  0
  9 21  1  0
 10 22  1  0
 10 23  1  0
 10 24  1  0
M  END
$$$$
