
     RDKit          3D

 15 14  0  0  0  0  0  0  0  0999 V2000
    1.1549   -0.1694    0.4898 C   0  0  0  0  0  0  0  0  0  0  0  0
    2.4186    0.3070   -0.2108 C   0  0  0  0  0  0  0  0  0  0  0  0
    3.8633   -0.1065    0.7359 Cl  0  0  0  0  0  0  0  0  0  0  0  0
    0.0223    0.1863   -0.3099 O   0  0  0  0  0  0  0  0  0  0  0  0
   -1.2036   -0.2358    0.2967 C   0  0  0  0  0  0  0  0  0  0  0  0
   -2.3611    0.1724   -0.6023 C   0  0  0  0  0  0  0  0  0  0  0  0
   -3.9151   -0.3255    0.0988 Cl  0  0  0  0  0  0  0  0  0  0  0  0
    1.1784   -1.2580    0.6183 H   0  0  0  0  0  0  0  0  0  0  0  0
    1.0643    0.3039    1.4745 H   0  0  0  0  0  0  0  0  0  0  0  0
    2.5101   -0.1512   -1.2009 H   0  0  0  0  0  0  0  0  0  0  0  0
    2.3973    1.3920   -0.3549 H   0  0  0  0  0  0  0  0  0  0  0  0
   -1.1867   -1.3245    0.4246 H   0  0  0  0  0  0  0  0  0  0  0  0
   -1.3008    0.2374    1.2808 H   0  0  0  0  0  0  0  0  0  0  0  0
   -2.2646   -0.2856   -1.5919 H   0  0  0  0  0  0  0  0  0  0  0  0
   -2.3774    1.2576   -0.7459 H   0  0  0  0  0  0  0  0  0  0  0  0
  1  2  1  0
  2  3  1  0
  1  4  1  0
  4  5  1  0
  5  6  1  0
  6  7  1  0
  1  8  1  0
  1  9  1  0
  2 10  1  0
  2 11  1  0
  5 12  1  0
  5 13  1  0
  6 14  1  0
  6 15  1  0
M  END
$$$$
