
     RDKit          3D

 24 24  0  0  0  0  0  0  0  0999 V2000
   -2.5004    0.8815    0.1339 C   0  0  0  0  0  0  0  0  0  0  0  0
   -1.1507    0.3001   -0.3001 C   0  0  2  0  0  0  0  0  0  0  0  0
   -0.7422   -0.8833    0.5883 C   0  0  2  0  0  0  0  0  0  0  0  0
    0.6598   -1.3622    0.2032 C   0  0  1  0  0  0  0  0  0  0  0  0
    1.6446   -0.1978    0.2185 C   0  0  2  0  0  0  0  0  0  0  0  0
    1.1059    0.9369   -0.6665 C   0  0  1  0  0  0  0  0  0  0  0  0
   -0.1758    1.3630   -0.2286 O   0  0  0  0  0  0  0  0  0  0  0  0
    2.0033    2.0338   -0.5598 O   0  0  0  0  0  0  0  0  0  0  0  0
    2.9240   -0.6575   -0.2417 O   0  0  0  0  0  0  0  0  0  0  0  0
    1.0757   -2.3830    1.1239 O   0  0  0  0  0  0  0  0  0  0  0  0
   -1.6599   -1.9692    0.4543 O   0  0  0  0  0  0  0  0  0  0  0  0
   -2.8239    2.0034   -0.6918 O   0  0  0  0  0  0  0  0  0  0  0  0
   -2.4625    1.2402    1.1678 H   0  0  0  0  0  0  0  0  0  0  0  0
   -3.3057    0.1470    0.0430 H   0  0  0  0  0  0  0  0  0  0  0  0
   -1.2388   -0.0104   -1.3500 H   0  0  0  0  0  0  0  0  0  0  0  0
   -0.7438   -0.5849    1.6444 H   0  0  0  0  0  0  0  0  0  0  0  0
    0.6428   -1.8428   -0.7830 H   0  0  0  0  0  0  0  0  0  0  0  0
    1.7924    0.1524    1.2477 H   0  0  0  0  0  0  0  0  0  0  0  0
    1.0750    0.6374   -1.7213 H   0  0  0  0  0  0  0  0  0  0  0  0
    1.6539    2.7036   -1.1723 H   0  0  0  0  0  0  0  0  0  0  0  0
    3.4743    0.1496   -0.3062 H   0  0  0  0  0  0  0  0  0  0  0  0
    2.0281   -2.5188    0.9414 H   0  0  0  0  0  0  0  0  0  0  0  0
   -1.2354   -2.7239    0.9120 H   0  0  0  0  0  0  0  0  0  0  0  0
   -2.0407    2.5846   -0.6574 H   0  0  0  0  0  0  0  0  0  0  0  0
  1  2  1  0
  2  3  1  0
  3  4  1  0
  4  5  1  0
  5  6  1  0
  6  7  1  0
  6  8  1  0
  5  9  1  0
  4 10  1  0
  3 11  1  0
  1 12  1  0
  7  2  1  0
  1 13  1  0
  1 14  1  0
  2 15  1  6
  3 16  1  1
  4 17  1  6
  5 18  1  1
  6 19  1  6
  8 20  1  0
  9 21  1  0
 10 22  1  0
 11 23  1  0
 12 24  1  0
M  END
$$$$
