
     RDKit          3D

 10  9  0  0  0  0  0  0  0  0999 V2000
    1.3049    0.2884   -0.2460 C   0  0  0  0  0  0  0  0  0  0  0  0
   -0.0576    0.5020    0.9249 S   0  0  0  0  0  4  0  0  0  0  0  0
    0.1465   -0.4818    2.0387 O   0  0  0  0  0  0  0  0  0  0  0  0
   -1.3387   -0.1666   -0.1635 C   0  0  0  0  0  0  0  0  0  0  0  0
    1.3920   -0.7632   -0.5295 H   0  0  0  0  0  0  0  0  0  0  0  0
    1.1242    0.9022   -1.1315 H   0  0  0  0  0  0  0  0  0  0  0  0
    2.2311    0.6119    0.2350 H   0  0  0  0  0  0  0  0  0  0  0  0
   -1.4273    0.4630   -1.0519 H   0  0  0  0  0  0  0  0  0  0  0  0
   -1.0865   -1.1898   -0.4522 H   0  0  0  0  0  0  0  0  0  0  0  0
   -2.2888   -0.1661    0.3759 H   0  0  0  0  0  0  0  0  0  0  0  0
  1  2  1  0
  2  3  2  0
  2  4  1  0
  1  5  1  0
  1  6  1  0
  1  7  1  0
  4  8  1  0
  4  9  1  0
  4 10  1  0
M  END
$$$$
