
     RDKit          3D

 30 29  0  0  0  0  0  0  0  0999 V2000
   -5.2721    0.1558    0.6192 C   0  0  0  0  0  0  0  0  0  0  0  0
   -4.0123   -0.6045    0.2367 C   0  0  0  0  0  0  0  0  0  0  0  0
   -2.7605    0.2498    0.4352 C   0  0  0  0  0  0  0  0  0  0  0  0
   -1.4956   -0.5186    0.0493 C   0  0  0  0  0  0  0  0  0  0  0  0
   -0.2428    0.3363    0.2479 C   0  0  0  0  0  0  0  0  0  0  0  0
    1.0222   -0.4322   -0.1379 C   0  0  0  0  0  0  0  0  0  0  0  0
    2.2749    0.4227    0.0606 C   0  0  0  0  0  0  0  0  0  0  0  0
    3.5379   -0.3445   -0.3246 C   0  0  0  0  0  0  0  0  0  0  0  0
    4.7894    0.4997   -0.1297 C   0  0  0  0  0  0  0  0  0  0  0  0
    5.9245   -0.2686   -0.5043 O   0  0  0  0  0  0  0  0  0  0  0  0
   -6.1549   -0.4737    0.4695 H   0  0  0  0  0  0  0  0  0  0  0  0
   -5.3886    1.0555    0.0065 H   0  0  0  0  0  0  0  0  0  0  0  0
   -5.2442    0.4573    1.6711 H   0  0  0  0  0  0  0  0  0  0  0  0
   -3.9428   -1.5141    0.8446 H   0  0  0  0  0  0  0  0  0  0  0  0
   -4.0863   -0.9191   -0.8108 H   0  0  0  0  0  0  0  0  0  0  0  0
   -2.6935    0.5653    1.4835 H   0  0  0  0  0  0  0  0  0  0  0  0
   -2.8370    1.1602   -0.1718 H   0  0  0  0  0  0  0  0  0  0  0  0
   -1.4191   -1.4288    0.6565 H   0  0  0  0  0  0  0  0  0  0  0  0
   -1.5627   -0.8339   -0.9991 H   0  0  0  0  0  0  0  0  0  0  0  0
   -0.3192    1.2465   -0.3592 H   0  0  0  0  0  0  0  0  0  0  0  0
   -0.1757    0.6516    1.2963 H   0  0  0  0  0  0  0  0  0  0  0  0
    1.0986   -1.3424    0.4692 H   0  0  0  0  0  0  0  0  0  0  0  0
    0.9550   -0.7474   -1.1863 H   0  0  0  0  0  0  0  0  0  0  0  0
    2.1985    1.3329   -0.5465 H   0  0  0  0  0  0  0  0  0  0  0  0
    2.3421    0.7380    1.1090 H   0  0  0  0  0  0  0  0  0  0  0  0
    3.4797   -0.6715   -1.3703 H   0  0  0  0  0  0  0  0  0  0  0  0
    3.6221   -1.2616    0.2718 H   0  0  0  0  0  0  0  0  0  0  0  0
    4.7557    1.3982   -0.7541 H   0  0  0  0  0  0  0  0  0  0  0  0
    4.9007    0.7973    0.9178 H   0  0  0  0  0  0  0  0  0  0  0  0
    6.7063    0.2938   -0.3699 H   0  0  0  0  0  0  0  0  0  0  0  0
  1  2  1  0
  2  3  1  0
  3  4  1  0
  4  5  1  0
  5  6  1  0
  6  7  1  0
  7  8  1  0
  8  9  1  0
  9 10  1  0
  1 11  1  0
  1 12  1  0
  1 13  1  0
  2 14  1  0
  2 15  1  0
  3 16  1  0
  3 17  1  0
  4 18  1  0
  4 19  1  0
  5 20  1  0
  5 21  1  0
  6 22  1  0
  6 23  1  0
  7 24  1  0
  7 25  1  0
  8 26  1  0
  8 27  1  0
  9 28  1  0
  9 29  1  0
 10 30  1  0
M  END
$$$$
