
     RDKit          3D

 19 20  0  0  0  0  0  0  0  0999 V2000
   -2.7481   -0.3736   -0.0455 C   0  0  0  0  0  0  0  0  0  0  0  0
   -2.5324    0.8980   -0.5687 C   0  0  0  0  0  0  0  0  0  0  0  0
   -1.2333    1.3966   -0.6777 C   0  0  0  0  0  0  0  0  0  0  0  0
   -0.1330    0.6284   -0.2642 C   0  0  0  0  0  0  0  0  0  0  0  0
    1.1793    1.1153   -0.3671 C   0  0  0  0  0  0  0  0  0  0  0  0
    2.2523    0.3344    0.0497 C   0  0  0  0  0  0  0  0  0  0  0  0
    2.0500   -0.9363    0.5735 C   0  0  0  0  0  0  0  0  0  0  0  0
    0.7492   -1.4333    0.6817 C   0  0  0  0  0  0  0  0  0  0  0  0
   -0.3518   -0.6643    0.2677 C   0  0  0  0  0  0  0  0  0  0  0  0
   -1.6653   -1.1504    0.3703 C   0  0  0  0  0  0  0  0  0  0  0  0
    3.5052    0.8594   -0.0742 O   0  0  0  0  0  0  0  0  0  0  0  0
   -3.7595   -0.7624    0.0395 H   0  0  0  0  0  0  0  0  0  0  0  0
   -3.3747    1.5037   -0.8928 H   0  0  0  0  0  0  0  0  0  0  0  0
   -1.0839    2.3925   -1.0890 H   0  0  0  0  0  0  0  0  0  0  0  0
    1.3731    2.1050   -0.7722 H   0  0  0  0  0  0  0  0  0  0  0  0
    2.8820   -1.5513    0.9007 H   0  0  0  0  0  0  0  0  0  0  0  0
    0.5983   -2.4289    1.0927 H   0  0  0  0  0  0  0  0  0  0  0  0
   -1.8549   -2.1414    0.7763 H   0  0  0  0  0  0  0  0  0  0  0  0
    4.1475    0.2088    0.2531 H   0  0  0  0  0  0  0  0  0  0  0  0
  1  2  2  0
  2  3  1  0
  3  4  2  0
  4  5  1  0
  5  6  2  0
  6  7  1  0
  7  8  2  0
  8  9  1  0
  9 10  2  0
  6 11  1  0
 10  1  1  0
  9  4  1  0
  1 12  1  0
  2 13  1  0
  3 14  1  0
  5 15  1  0
  7 16  1  0
  8 17  1  0
 10 18  1  0
 11 19  1  0
M  END
$$$$
