
     RDKit          3D

 26 27  0  0  0  0  0  0  0  0999 V2000
   -0.1381   -2.2945    0.7635 C   0  0  0  0  0  0  0  0  0  0  0  0
   -0.0615   -1.0208    0.3324 C   0  0  0  0  0  0  0  0  0  0  0  0
   -1.3286   -0.2775    0.1149 C   0  0  0  0  0  0  0  0  0  0  0  0
   -1.4895    0.9987    0.6728 C   0  0  0  0  0  0  0  0  0  0  0  0
   -2.6654    1.7236    0.4646 C   0  0  0  0  0  0  0  0  0  0  0  0
   -3.6905    1.1832   -0.3092 C   0  0  0  0  0  0  0  0  0  0  0  0
   -3.5400   -0.0798   -0.8784 C   0  0  0  0  0  0  0  0  0  0  0  0
   -2.3643   -0.8054   -0.6703 C   0  0  0  0  0  0  0  0  0  0  0  0
    1.2854   -0.4394    0.1015 C   0  0  0  0  0  0  0  0  0  0  0  0
    2.2862   -0.4919    1.0832 C   0  0  0  0  0  0  0  0  0  0  0  0
    3.5400    0.0796    0.8522 C   0  0  0  0  0  0  0  0  0  0  0  0
    3.8047    0.7150   -0.3594 C   0  0  0  0  0  0  0  0  0  0  0  0
    2.8163    0.7831   -1.3392 C   0  0  0  0  0  0  0  0  0  0  0  0
    1.5624    0.2120   -1.1088 C   0  0  0  0  0  0  0  0  0  0  0  0
   -1.0895   -2.7755    0.9703 H   0  0  0  0  0  0  0  0  0  0  0  0
    0.7477   -2.9015    0.9248 H   0  0  0  0  0  0  0  0  0  0  0  0
   -0.6984    1.4359    1.2783 H   0  0  0  0  0  0  0  0  0  0  0  0
   -2.7783    2.7101    0.9062 H   0  0  0  0  0  0  0  0  0  0  0  0
   -4.6047    1.7480   -0.4717 H   0  0  0  0  0  0  0  0  0  0  0  0
   -4.3355   -0.4999   -1.4882 H   0  0  0  0  0  0  0  0  0  0  0  0
   -2.2580   -1.7826   -1.1353 H   0  0  0  0  0  0  0  0  0  0  0  0
    2.0923   -0.9697    2.0406 H   0  0  0  0  0  0  0  0  0  0  0  0
    4.3073    0.0318    1.6204 H   0  0  0  0  0  0  0  0  0  0  0  0
    4.7798    1.1603   -0.5387 H   0  0  0  0  0  0  0  0  0  0  0  0
    3.0187    1.2817   -2.2834 H   0  0  0  0  0  0  0  0  0  0  0  0
    0.8015    0.2755   -1.8837 H   0  0  0  0  0  0  0  0  0  0  0  0
  1  2  2  3
  2  3  1  0
  3  4  2  0
  4  5  1  0
  5  6  2  0
  6  7  1  0
  7  8  2  0
  2  9  1  0
  9 10  2  0
 10 11  1  0
 11 12  2  0
 12 13  1  0
 13 14  2  0
  8  3  1  0
 14  9  1  0
  1 15  1  0
  1 16  1  0
  4 17  1  0
  5 18  1  0
  6 19  1  0
  7 20  1  0
  8 21  1  0
 10 22  1  0
 11 23  1  0
 12 24  1  0
 13 25  1  0
 14 26  1  0
M  END
$$$$
