
     RDKit          3D

 24 23  0  0  0  0  0  0  0  0999 V2000
    2.2679    1.8163   -1.2753 C   0  0  0  0  0  0  0  0  0  0  0  0
    1.0605    1.0849   -1.1130 O   0  0  0  0  0  0  0  0  0  0  0  0
    1.0609    0.3323    0.1113 C   0  0  0  0  0  0  0  0  0  0  0  0
   -0.2395   -0.5180    0.3222 C   0  0  0  0  0  0  0  0  0  0  0  0
   -0.2245   -1.6788   -0.5255 O   0  0  0  0  0  0  0  0  0  0  0  0
   -0.2869   -1.3976   -1.9139 C   0  0  0  0  0  0  0  0  0  0  0  0
   -1.4493    0.2216    0.1122 O   0  0  0  0  0  0  0  0  0  0  0  0
   -1.5434    1.4293    0.8483 C   0  0  0  0  0  0  0  0  0  0  0  0
   -0.1683   -0.9726    1.6911 O   0  0  0  0  0  0  0  0  0  0  0  0
   -1.2089   -1.8807    2.0262 C   0  0  0  0  0  0  0  0  0  0  0  0
    3.1245    1.1370   -1.3193 H   0  0  0  0  0  0  0  0  0  0  0  0
    2.2117    2.3683   -2.2173 H   0  0  0  0  0  0  0  0  0  0  0  0
    2.3952    2.5324   -0.4578 H   0  0  0  0  0  0  0  0  0  0  0  0
    1.9278   -0.3409    0.1155 H   0  0  0  0  0  0  0  0  0  0  0  0
    1.1829    1.0326    0.9471 H   0  0  0  0  0  0  0  0  0  0  0  0
   -1.0579   -0.6604   -2.1544 H   0  0  0  0  0  0  0  0  0  0  0  0
   -0.5373   -2.3282   -2.4318 H   0  0  0  0  0  0  0  0  0  0  0  0
    0.6883   -1.0732   -2.2852 H   0  0  0  0  0  0  0  0  0  0  0  0
   -1.3598    1.2673    1.9143 H   0  0  0  0  0  0  0  0  0  0  0  0
   -2.5605    1.8150    0.7339 H   0  0  0  0  0  0  0  0  0  0  0  0
   -0.8573    2.1840    0.4550 H   0  0  0  0  0  0  0  0  0  0  0  0
   -2.1955   -1.4417    1.8526 H   0  0  0  0  0  0  0  0  0  0  0  0
   -1.1073   -2.8180    1.4716 H   0  0  0  0  0  0  0  0  0  0  0  0
   -1.1233   -2.1111    3.0920 H   0  0  0  0  0  0  0  0  0  0  0  0
  1  2  1  0
  2  3  1  0
  3  4  1  0
  4  5  1  0
  5  6  1  0
  4  7  1  0
  7  8  1  0
  4  9  1  0
  9 10  1  0
  1 11  1  0
  1 12  1  0
  1 13  1  0
  3 14  1  0
  3 15  1  0
  6 16  1  0
  6 17  1  0
  6 18  1  0
  8 19  1  0
  8 20  1  0
  8 21  1  0
 10 22  1  0
 10 23  1  0
 10 24  1  0
M  END
$$$$
