
     RDKit          3D

 20 19  0  0  0  0  0  0  0  0999 V2000
   -3.2038   -0.1574   -0.3007 C   0  0  0  0  0  0  0  0  0  0  0  0
   -1.8815    0.5920   -0.3383 C   0  0  0  0  0  0  0  0  0  0  0  0
   -0.6968   -0.3521   -0.1353 C   0  0  0  0  0  0  0  0  0  0  0  0
    0.6314    0.4056   -0.1738 C   0  0  0  0  0  0  0  0  0  0  0  0
    1.8173   -0.5386    0.0293 C   0  0  0  0  0  0  0  0  0  0  0  0
    3.1323    0.2213   -0.0102 C   0  0  0  0  0  0  0  0  0  0  0  0
    4.6148   -1.0130    0.2516 Br  0  0  0  0  0  0  0  0  0  0  0  0
   -3.3442   -0.6573    0.6630 H   0  0  0  0  0  0  0  0  0  0  0  0
   -3.2485   -0.9142   -1.0904 H   0  0  0  0  0  0  0  0  0  0  0  0
   -4.0372    0.5367   -0.4479 H   0  0  0  0  0  0  0  0  0  0  0  0
   -1.8823    1.3619    0.4420 H   0  0  0  0  0  0  0  0  0  0  0  0
   -1.7871    1.1064   -1.3017 H   0  0  0  0  0  0  0  0  0  0  0  0
   -0.7031   -1.1226   -0.9159 H   0  0  0  0  0  0  0  0  0  0  0  0
   -0.7983   -0.8672    0.8278 H   0  0  0  0  0  0  0  0  0  0  0  0
    0.7328    0.9204   -1.1370 H   0  0  0  0  0  0  0  0  0  0  0  0
    0.6375    1.1760    0.6070 H   0  0  0  0  0  0  0  0  0  0  0  0
    1.8077   -1.3120   -0.7490 H   0  0  0  0  0  0  0  0  0  0  0  0
    1.7127   -1.0571    0.9907 H   0  0  0  0  0  0  0  0  0  0  0  0
    3.2964    0.7063   -0.9763 H   0  0  0  0  0  0  0  0  0  0  0  0
    3.2001    0.9649    0.7886 H   0  0  0  0  0  0  0  0  0  0  0  0
  1  2  1  0
  2  3  1  0
  3  4  1  0
  4  5  1  0
  5  6  1  0
  6  7  1  0
  1  8  1  0
  1  9  1  0
  1 10  1  0
  2 11  1  0
  2 12  1  0
  3 13  1  0
  3 14  1  0
  4 15  1  0
  4 16  1  0
  5 17  1  0
  5 18  1  0
  6 19  1  0
  6 20  1  0
M  END
$$$$
