
     RDKit          3D

 23 22  0  0  0  0  0  0  0  0999 V2000
   -3.8248   -0.0222    0.0866 C   0  0  0  0  0  0  0  0  0  0  0  0
   -2.4749   -0.6732    0.3420 C   0  0  0  0  0  0  0  0  0  0  0  0
   -1.3263    0.2087   -0.1469 C   0  0  0  0  0  0  0  0  0  0  0  0
    0.0298   -0.4498    0.1118 C   0  0  0  0  0  0  0  0  0  0  0  0
    1.1794    0.4328   -0.3775 C   0  0  0  0  0  0  0  0  0  0  0  0
    2.5355   -0.2252   -0.1189 C   0  0  0  0  0  0  0  0  0  0  0  0
    3.6717    0.6571   -0.6075 C   0  0  0  0  0  0  0  0  0  0  0  0
    5.3781   -0.2136   -0.2612 Br  0  0  0  0  0  0  0  0  0  0  0  0
   -3.9028    0.9370    0.6084 H   0  0  0  0  0  0  0  0  0  0  0  0
   -4.6316   -0.6698    0.4439 H   0  0  0  0  0  0  0  0  0  0  0  0
   -3.9792    0.1545   -0.9826 H   0  0  0  0  0  0  0  0  0  0  0  0
   -2.4418   -1.6438   -0.1665 H   0  0  0  0  0  0  0  0  0  0  0  0
   -2.3658   -0.8655    1.4157 H   0  0  0  0  0  0  0  0  0  0  0  0
   -1.4423    0.4015   -1.2204 H   0  0  0  0  0  0  0  0  0  0  0  0
   -1.3664    1.1797    0.3618 H   0  0  0  0  0  0  0  0  0  0  0  0
    0.0698   -1.4206   -0.3970 H   0  0  0  0  0  0  0  0  0  0  0  0
    0.1458   -0.6423    1.1854 H   0  0  0  0  0  0  0  0  0  0  0  0
    1.1394    1.4036    0.1315 H   0  0  0  0  0  0  0  0  0  0  0  0
    1.0634    0.6253   -1.4510 H   0  0  0  0  0  0  0  0  0  0  0  0
    2.5730   -1.1986   -0.6240 H   0  0  0  0  0  0  0  0  0  0  0  0
    2.6488   -0.4222    0.9545 H   0  0  0  0  0  0  0  0  0  0  0  0
    3.6990    1.6171   -0.0846 H   0  0  0  0  0  0  0  0  0  0  0  0
    3.6221    0.8294   -1.6861 H   0  0  0  0  0  0  0  0  0  0  0  0
  1  2  1  0
  2  3  1  0
  3  4  1  0
  4  5  1  0
  5  6  1  0
  6  7  1  0
  7  8  1  0
  1  9  1  0
  1 10  1  0
  1 11  1  0
  2 12  1  0
  2 13  1  0
  3 14  1  0
  3 15  1  0
  4 16  1  0
  4 17  1  0
  5 18  1  0
  5 19  1  0
  6 20  1  0
  6 21  1  0
  7 22  1  0
  7 23  1  0
M  END
$$$$
