
     RDKit          3D

 26 27  0  0  0  0  0  0  0  0999 V2000
    0.3674   -1.6235    0.7798 C   0  0  0  0  0  0  0  0  0  0  0  0
    1.7165   -1.9702    0.8896 C   0  0  0  0  0  0  0  0  0  0  0  0
    2.6977   -1.1026    0.4213 C   0  0  0  0  0  0  0  0  0  0  0  0
    2.3399    0.1191   -0.1606 C   0  0  0  0  0  0  0  0  0  0  0  0
    0.9815    0.4595   -0.2668 C   0  0  0  0  0  0  0  0  0  0  0  0
   -0.0261   -0.4045    0.2005 C   0  0  0  0  0  0  0  0  0  0  0  0
   -1.4513   -0.0472    0.0820 C   0  0  0  0  0  0  0  0  0  0  0  0
   -2.3727   -0.9424   -0.4938 C   0  0  0  0  0  0  0  0  0  0  0  0
   -3.7251   -0.6066   -0.6082 C   0  0  0  0  0  0  0  0  0  0  0  0
   -4.1687    0.6271   -0.1478 C   0  0  0  0  0  0  0  0  0  0  0  0
   -3.2892    1.5329    0.4233 C   0  0  0  0  0  0  0  0  0  0  0  0
   -1.9444    1.1910    0.5328 C   0  0  0  0  0  0  0  0  0  0  0  0
   -1.1139    2.0815    1.0977 F   0  0  0  0  0  0  0  0  0  0  0  0
   -5.4646    0.9448   -0.2593 F   0  0  0  0  0  0  0  0  0  0  0  0
    3.3983    1.0275   -0.6533 C   0  0  0  0  0  0  0  0  0  0  0  0
    4.5934    0.7950   -0.5744 O   0  0  0  0  0  0  0  0  0  0  0  0
    2.9320    2.1549   -1.2138 O   0  0  0  0  0  0  0  0  0  0  0  0
    3.9929   -1.5222    0.5693 O   0  0  0  0  0  0  0  0  0  0  0  0
   -0.3791   -2.3151    1.1671 H   0  0  0  0  0  0  0  0  0  0  0  0
    2.0015   -2.9154    1.3447 H   0  0  0  0  0  0  0  0  0  0  0  0
    0.7000    1.4086   -0.7207 H   0  0  0  0  0  0  0  0  0  0  0  0
   -2.0387   -1.9078   -0.8704 H   0  0  0  0  0  0  0  0  0  0  0  0
   -4.4320   -1.2990   -1.0557 H   0  0  0  0  0  0  0  0  0  0  0  0
   -3.6422    2.4926    0.7816 H   0  0  0  0  0  0  0  0  0  0  0  0
    3.7333    2.6509   -1.4832 H   0  0  0  0  0  0  0  0  0  0  0  0
    4.5935   -0.8291    0.2183 H   0  0  0  0  0  0  0  0  0  0  0  0
  1  2  2  0
  2  3  1  0
  3  4  2  0
  4  5  1  0
  5  6  2  0
  6  7  1  0
  7  8  2  0
  8  9  1  0
  9 10  2  0
 10 11  1  0
 11 12  2  0
 12 13  1  0
 10 14  1  0
  4 15  1  0
 15 16  2  0
 15 17  1  0
  3 18  1  0
  6  1  1  0
 12  7  1  0
  1 19  1  0
  2 20  1  0
  5 21  1  0
  8 22  1  0
  9 23  1  0
 11 24  1  0
 17 25  1  0
 18 26  1  0
M  END
$$$$
