
     RDKit          3D

 21 21  0  0  0  0  0  0  0  0999 V2000
    3.1605   -0.3188   -0.0312 C   0  0  0  0  0  0  0  0  0  0  0  0
    1.7026    0.0307    0.0073 C   0  0  0  0  0  0  0  0  0  0  0  0
    1.2924    1.3650   -0.0228 C   0  0  0  0  0  0  0  0  0  0  0  0
   -0.0659    1.6861   -0.0182 C   0  0  0  0  0  0  0  0  0  0  0  0
   -1.0432    0.6804    0.0065 C   0  0  0  0  0  0  0  0  0  0  0  0
   -0.6398   -0.6692    0.0199 C   0  0  0  0  0  0  0  0  0  0  0  0
    0.7311   -0.9778    0.0157 C   0  0  0  0  0  0  0  0  0  0  0  0
   -1.6455   -1.7877    0.0372 C   0  0  0  0  0  0  0  0  0  0  0  0
   -2.4969    1.0657    0.0093 C   0  0  0  0  0  0  0  0  0  0  0  0
    3.4900   -0.4355   -1.0682 H   0  0  0  0  0  0  0  0  0  0  0  0
    3.7628    0.4616    0.4456 H   0  0  0  0  0  0  0  0  0  0  0  0
    3.3525   -1.2517    0.5092 H   0  0  0  0  0  0  0  0  0  0  0  0
    2.0274    2.1660   -0.0491 H   0  0  0  0  0  0  0  0  0  0  0  0
   -0.3567    2.7342   -0.0366 H   0  0  0  0  0  0  0  0  0  0  0  0
    1.0476   -2.0194    0.0196 H   0  0  0  0  0  0  0  0  0  0  0  0
   -1.1575   -2.7682    0.0359 H   0  0  0  0  0  0  0  0  0  0  0  0
   -2.2638   -1.7289    0.9385 H   0  0  0  0  0  0  0  0  0  0  0  0
   -2.2853   -1.7379   -0.8495 H   0  0  0  0  0  0  0  0  0  0  0  0
   -2.9933    0.6820   -0.8876 H   0  0  0  0  0  0  0  0  0  0  0  0
   -2.6248    2.1534    0.0179 H   0  0  0  0  0  0  0  0  0  0  0  0
   -2.9942    0.6700    0.9005 H   0  0  0  0  0  0  0  0  0  0  0  0
  1  2  1  0
  2  3  2  0
  3  4  1  0
  4  5  2  0
  5  6  1  0
  6  7  2  0
  6  8  1  0
  5  9  1  0
  7  2  1  0
  1 10  1  0
  1 11  1  0
  1 12  1  0
  3 13  1  0
  4 14  1  0
  7 15  1  0
  8 16  1  0
  8 17  1  0
  8 18  1  0
  9 19  1  0
  9 20  1  0
  9 21  1  0
M  END
$$$$
