
     RDKit          3D

 21 21  0  0  0  0  0  0  0  0999 V2000
    2.3438   -1.0151    0.2290 C   0  0  0  0  0  0  0  0  0  0  0  0
    1.4120   -0.5469   -0.8791 C   0  0  0  0  0  0  0  0  0  0  0  0
    0.0022   -0.3286   -0.3778 C   0  0  0  0  0  0  0  0  0  0  0  0
   -0.8750   -1.4276   -0.3510 C   0  0  0  0  0  0  0  0  0  0  0  0
   -2.1833   -1.2909    0.1108 C   0  0  0  0  0  0  0  0  0  0  0  0
   -2.6345   -0.0536    0.5553 C   0  0  0  0  0  0  0  0  0  0  0  0
   -1.7761    1.0455    0.5416 C   0  0  0  0  0  0  0  0  0  0  0  0
   -0.4528    0.9235    0.0855 C   0  0  0  0  0  0  0  0  0  0  0  0
    0.4287    2.1422    0.0829 C   0  0  0  0  0  0  0  0  0  0  0  0
    2.0056   -1.9646    0.6578 H   0  0  0  0  0  0  0  0  0  0  0  0
    2.4002   -0.2829    1.0410 H   0  0  0  0  0  0  0  0  0  0  0  0
    3.3543   -1.1634   -0.1648 H   0  0  0  0  0  0  0  0  0  0  0  0
    1.8053    0.3670   -1.3375 H   0  0  0  0  0  0  0  0  0  0  0  0
    1.3995   -1.2926   -1.6841 H   0  0  0  0  0  0  0  0  0  0  0  0
   -0.5377   -2.4036   -0.6938 H   0  0  0  0  0  0  0  0  0  0  0  0
   -2.8484   -2.1500    0.1225 H   0  0  0  0  0  0  0  0  0  0  0  0
   -3.6541    0.0578    0.9138 H   0  0  0  0  0  0  0  0  0  0  0  0
   -2.1489    2.0052    0.8931 H   0  0  0  0  0  0  0  0  0  0  0  0
    1.3671    1.9421    0.6089 H   0  0  0  0  0  0  0  0  0  0  0  0
   -0.0508    2.9858    0.5911 H   0  0  0  0  0  0  0  0  0  0  0  0
    0.6429    2.4507   -0.9452 H   0  0  0  0  0  0  0  0  0  0  0  0
  1  2  1  0
  2  3  1  0
  3  4  2  0
  4  5  1  0
  5  6  2  0
  6  7  1  0
  7  8  2  0
  8  9  1  0
  8  3  1  0
  1 10  1  0
  1 11  1  0
  1 12  1  0
  2 13  1  0
  2 14  1  0
  4 15  1  0
  5 16  1  0
  6 17  1  0
  7 18  1  0
  9 19  1  0
  9 20  1  0
  9 21  1  0
M  END
$$$$
