
     RDKit          3D

 17 16  0  0  0  0  0  0  0  0999 V2000
   -2.8279   -0.0238    0.6337 C   0  0  0  0  0  0  0  0  0  0  0  0
   -1.3517    0.0142    0.9932 C   0  0  0  0  0  0  0  0  0  0  0  0
   -0.4707   -0.0212   -0.2530 C   0  0  0  0  0  0  0  0  0  0  0  0
    0.9994    0.0162    0.0936 C   0  0  0  0  0  0  0  0  0  0  0  0
    1.4632    0.0685    1.2235 O   0  0  0  0  0  0  0  0  0  0  0  0
    1.7349   -0.0176   -1.0545 O   0  0  0  0  0  0  0  0  0  0  0  0
    3.1465    0.0136   -0.8398 C   0  0  0  0  0  0  0  0  0  0  0  0
   -3.1029    0.8354    0.0135 H   0  0  0  0  0  0  0  0  0  0  0  0
   -3.0744   -0.9378    0.0839 H   0  0  0  0  0  0  0  0  0  0  0  0
   -3.4399    0.0024    1.5408 H   0  0  0  0  0  0  0  0  0  0  0  0
   -1.1153   -0.8371    1.6428 H   0  0  0  0  0  0  0  0  0  0  0  0
   -1.1435    0.9215    1.5729 H   0  0  0  0  0  0  0  0  0  0  0  0
   -0.6940    0.8431   -0.8885 H   0  0  0  0  0  0  0  0  0  0  0  0
   -0.6653   -0.9398   -0.8177 H   0  0  0  0  0  0  0  0  0  0  0  0
    3.6384   -0.0173   -1.8159 H   0  0  0  0  0  0  0  0  0  0  0  0
    3.4371    0.9401   -0.3347 H   0  0  0  0  0  0  0  0  0  0  0  0
    3.4660   -0.8602   -0.2632 H   0  0  0  0  0  0  0  0  0  0  0  0
  1  2  1  0
  2  3  1  0
  3  4  1  0
  4  5  2  0
  4  6  1  0
  6  7  1  0
  1  8  1  0
  1  9  1  0
  1 10  1  0
  2 11  1  0
  2 12  1  0
  3 13  1  0
  3 14  1  0
  7 15  1  0
  7 16  1  0
  7 17  1  0
M  END
$$$$
