
     RDKit          3D

 33 34  0  0  0  0  0  0  0  0999 V2000
   -2.9783    0.2950   -1.9880 C   0  0  0  0  0  0  0  0  0  0  0  0
   -2.8845    0.5023   -0.4756 C   0  0  1  0  0  0  0  0  0  0  0  0
   -1.9830   -0.5406    0.1715 C   0  0  0  0  0  0  0  0  0  0  0  0
   -2.5120   -1.4349    1.1159 C   0  0  0  0  0  0  0  0  0  0  0  0
   -1.7029   -2.4022    1.7154 C   0  0  0  0  0  0  0  0  0  0  0  0
   -0.3497   -2.4802    1.3910 C   0  0  0  0  0  0  0  0  0  0  0  0
    0.2006   -1.5843    0.4700 C   0  0  0  0  0  0  0  0  0  0  0  0
   -0.6197   -0.6373   -0.1569 C   0  0  0  0  0  0  0  0  0  0  0  0
    1.6473   -1.6933    0.1546 C   0  0  0  0  0  0  0  0  0  0  0  0
    2.1685   -2.8063    0.1363 O   0  0  0  0  0  0  0  0  0  0  0  0
    2.4790   -0.4955   -0.1376 C   0  0  0  0  0  0  0  0  0  0  0  0
    3.5748   -0.6419   -0.9975 C   0  0  0  0  0  0  0  0  0  0  0  0
    4.3877    0.4539   -1.2919 C   0  0  0  0  0  0  0  0  0  0  0  0
    4.1156    1.6965   -0.7208 C   0  0  0  0  0  0  0  0  0  0  0  0
    3.0373    1.8437    0.1516 C   0  0  0  0  0  0  0  0  0  0  0  0
    2.2227    0.7492    0.4509 C   0  0  0  0  0  0  0  0  0  0  0  0
   -2.4592    1.9312   -0.1689 C   0  0  0  0  0  0  0  0  0  0  0  0
   -1.4072    2.3166    0.3150 O   0  0  0  0  0  0  0  0  0  0  0  0
   -3.4120    2.8310   -0.4983 O   0  0  0  0  0  0  0  0  0  0  0  0
   -3.7181    0.9715   -2.4299 H   0  0  0  0  0  0  0  0  0  0  0  0
   -3.2774   -0.7312   -2.2283 H   0  0  0  0  0  0  0  0  0  0  0  0
   -2.0228    0.4944   -2.4862 H   0  0  0  0  0  0  0  0  0  0  0  0
   -3.8906    0.3876   -0.0500 H   0  0  0  0  0  0  0  0  0  0  0  0
   -3.5647   -1.3926    1.3896 H   0  0  0  0  0  0  0  0  0  0  0  0
   -2.1272   -3.0964    2.4368 H   0  0  0  0  0  0  0  0  0  0  0  0
    0.2769   -3.2367    1.8592 H   0  0  0  0  0  0  0  0  0  0  0  0
   -0.1986    0.0363   -0.9003 H   0  0  0  0  0  0  0  0  0  0  0  0
    3.7968   -1.6115   -1.4391 H   0  0  0  0  0  0  0  0  0  0  0  0
    5.2351    0.3356   -1.9624 H   0  0  0  0  0  0  0  0  0  0  0  0
    4.7502    2.5494   -0.9486 H   0  0  0  0  0  0  0  0  0  0  0  0
    2.8324    2.8105    0.6053 H   0  0  0  0  0  0  0  0  0  0  0  0
    1.4020    0.8860    1.1512 H   0  0  0  0  0  0  0  0  0  0  0  0
   -3.0189    3.6942   -0.2491 H   0  0  0  0  0  0  0  0  0  0  0  0
  1  2  1  0
  2  3  1  0
  3  4  2  0
  4  5  1  0
  5  6  2  0
  6  7  1  0
  7  8  2  0
  7  9  1  0
  9 10  2  0
  9 11  1  0
 11 12  2  0
 12 13  1  0
 13 14  2  0
 14 15  1  0
 15 16  2  0
  2 17  1  0
 17 18  2  0
 17 19  1  0
  8  3  1  0
 16 11  1  0
  1 20  1  0
  1 21  1  0
  1 22  1  0
  2 23  1  1
  4 24  1  0
  5 25  1  0
  6 26  1  0
  8 27  1  0
 12 28  1  0
 13 29  1  0
 14 30  1  0
 15 31  1  0
 16 32  1  0
 19 33  1  0
M  END
$$$$
