
     RDKit          3D

 16 16  0  0  0  0  0  0  0  0999 V2000
   -1.2755   -0.5502    0.1942 C   0  0  0  0  0  0  0  0  0  0  0  0
   -0.8769    0.8967    0.4863 C   0  0  0  0  0  0  0  0  0  0  0  0
    0.4586    1.1192   -0.2194 C   0  0  0  0  0  0  0  0  0  0  0  0
    1.0631   -0.2730   -0.3224 C   0  0  0  0  0  0  0  0  0  0  0  0
   -0.1409   -1.1473   -0.6369 C   0  0  0  0  0  0  0  0  0  0  0  0
    1.6190   -0.6653    0.9265 O   0  0  0  0  0  0  0  0  0  0  0  0
   -2.2294   -0.6086   -0.3401 H   0  0  0  0  0  0  0  0  0  0  0  0
   -1.3935   -1.1007    1.1347 H   0  0  0  0  0  0  0  0  0  0  0  0
   -0.7646    1.0387    1.5676 H   0  0  0  0  0  0  0  0  0  0  0  0
   -1.6346    1.6070    0.1403 H   0  0  0  0  0  0  0  0  0  0  0  0
    1.0872    1.8205    0.3376 H   0  0  0  0  0  0  0  0  0  0  0  0
    0.2799    1.5272   -1.2211 H   0  0  0  0  0  0  0  0  0  0  0  0
    1.8403   -0.3440   -1.0887 H   0  0  0  0  0  0  0  0  0  0  0  0
    0.0188   -2.2009   -0.3878 H   0  0  0  0  0  0  0  0  0  0  0  0
   -0.3917   -1.0732   -1.7016 H   0  0  0  0  0  0  0  0  0  0  0  0
    2.3403   -0.0460    1.1310 H   0  0  0  0  0  0  0  0  0  0  0  0
  1  2  1  0
  2  3  1  0
  3  4  1  0
  4  5  1  0
  4  6  1  0
  5  1  1  0
  1  7  1  0
  1  8  1  0
  2  9  1  0
  2 10  1  0
  3 11  1  0
  3 12  1  0
  4 13  1  0
  5 14  1  0
  5 15  1  0
  6 16  1  0
M  END
$$$$
