
     RDKit          3D

 15 15  0  0  0  0  0  0  0  0999 V2000
   -1.7311    0.8294    0.0291 C   0  0  0  0  0  0  0  0  0  0  0  0
   -1.9662   -0.5449   -0.0446 C   0  0  0  0  0  0  0  0  0  0  0  0
   -0.8950   -1.4390   -0.0826 C   0  0  0  0  0  0  0  0  0  0  0  0
    0.4107   -0.9581   -0.0467 C   0  0  0  0  0  0  0  0  0  0  0  0
    0.6508    0.4183    0.0272 C   0  0  0  0  0  0  0  0  0  0  0  0
   -0.4221    1.3154    0.0653 C   0  0  0  0  0  0  0  0  0  0  0  0
    2.0239    0.9531    0.0665 C   0  0  0  0  0  0  0  0  0  0  0  0
    2.9946    0.2026    0.0352 O   0  0  0  0  0  0  0  0  0  0  0  0
    1.4122   -1.8896   -0.0872 O   0  0  0  0  0  0  0  0  0  0  0  0
   -2.5706    1.5205    0.0584 H   0  0  0  0  0  0  0  0  0  0  0  0
   -2.9857   -0.9226   -0.0727 H   0  0  0  0  0  0  0  0  0  0  0  0
   -1.0766   -2.5091   -0.1400 H   0  0  0  0  0  0  0  0  0  0  0  0
   -0.2556    2.3878    0.1227 H   0  0  0  0  0  0  0  0  0  0  0  0
    2.1389    2.0482    0.1246 H   0  0  0  0  0  0  0  0  0  0  0  0
    2.2719   -1.4119   -0.0551 H   0  0  0  0  0  0  0  0  0  0  0  0
  1  2  2  0
  2  3  1  0
  3  4  2  0
  4  5  1  0
  5  6  2  0
  5  7  1  0
  7  8  2  0
  4  9  1  0
  6  1  1  0
  1 10  1  0
  2 11  1  0
  3 12  1  0
  6 13  1  0
  7 14  1  0
  9 15  1  0
M  END
$$$$
