
     RDKit          3D

 22 21  0  0  0  0  0  0  0  0999 V2000
    3.7971    0.2950   -0.1217 C   0  0  0  0  0  0  0  0  0  0  0  0
    2.5329   -0.0694    0.6393 C   0  0  0  0  0  0  0  0  0  0  0  0
    1.2830    0.1833   -0.1986 C   0  0  0  0  0  0  0  0  0  0  0  0
    0.0020   -0.1733    0.5396 C   0  0  0  0  0  0  0  0  0  0  0  0
    0.0070   -0.6153    1.6874 O   0  0  0  0  0  0  0  0  0  0  0  0
   -1.2856    0.0538   -0.2373 C   0  0  0  0  0  0  0  0  0  0  0  0
   -2.5285   -0.3246    0.5631 C   0  0  0  0  0  0  0  0  0  0  0  0
   -3.7994   -0.0880   -0.2361 C   0  0  0  0  0  0  0  0  0  0  0  0
    4.6799    0.1061    0.4971 H   0  0  0  0  0  0  0  0  0  0  0  0
    3.8897   -0.2998   -1.0361 H   0  0  0  0  0  0  0  0  0  0  0  0
    3.7967    1.3540   -0.3987 H   0  0  0  0  0  0  0  0  0  0  0  0
    2.4870    0.5157    1.5656 H   0  0  0  0  0  0  0  0  0  0  0  0
    2.5793   -1.1248    0.9334 H   0  0  0  0  0  0  0  0  0  0  0  0
    1.2278    1.2418   -0.4759 H   0  0  0  0  0  0  0  0  0  0  0  0
    1.3210   -0.4163   -1.1149 H   0  0  0  0  0  0  0  0  0  0  0  0
   -1.2357   -0.5452   -1.1534 H   0  0  0  0  0  0  0  0  0  0  0  0
   -1.3289    1.1129   -0.5144 H   0  0  0  0  0  0  0  0  0  0  0  0
   -2.4773   -1.3797    0.8572 H   0  0  0  0  0  0  0  0  0  0  0  0
   -2.5695    0.2608    1.4894 H   0  0  0  0  0  0  0  0  0  0  0  0
   -4.6770   -0.3656    0.3562 H   0  0  0  0  0  0  0  0  0  0  0  0
   -3.8972    0.9662   -0.5146 H   0  0  0  0  0  0  0  0  0  0  0  0
   -3.8042   -0.6876   -1.1520 H   0  0  0  0  0  0  0  0  0  0  0  0
  1  2  1  0
  2  3  1  0
  3  4  1  0
  4  5  2  0
  4  6  1  0
  6  7  1  0
  7  8  1  0
  1  9  1  0
  1 10  1  0
  1 11  1  0
  2 12  1  0
  2 13  1  0
  3 14  1  0
  3 15  1  0
  6 16  1  0
  6 17  1  0
  7 18  1  0
  7 19  1  0
  8 20  1  0
  8 21  1  0
  8 22  1  0
M  END
$$$$
