
     RDKit          3D

 23 22  0  0  0  0  0  0  0  0999 V2000
    4.2499    0.4584    0.2278 C   0  0  0  0  0  0  0  0  0  0  0  0
    2.9863   -0.3475    0.4805 C   0  0  0  0  0  0  0  0  0  0  0  0
    1.7494    0.3670   -0.0580 C   0  0  0  0  0  0  0  0  0  0  0  0
    0.4874   -0.4261    0.1882 C   0  0  0  0  0  0  0  0  0  0  0  0
    0.4263   -1.5115    0.7473 O   0  0  0  0  0  0  0  0  0  0  0  0
   -0.5805    0.2587   -0.3122 O   0  0  0  0  0  0  0  0  0  0  0  0
   -1.8397   -0.4037   -0.1340 C   0  0  0  0  0  0  0  0  0  0  0  0
   -2.9260    0.4769   -0.7392 C   0  0  0  0  0  0  0  0  0  0  0  0
   -4.3029   -0.1462   -0.5972 C   0  0  0  0  0  0  0  0  0  0  0  0
    4.1965    1.4357    0.7182 H   0  0  0  0  0  0  0  0  0  0  0  0
    4.4049    0.6193   -0.8438 H   0  0  0  0  0  0  0  0  0  0  0  0
    5.1228   -0.0718    0.6214 H   0  0  0  0  0  0  0  0  0  0  0  0
    2.8779   -0.5227    1.5576 H   0  0  0  0  0  0  0  0  0  0  0  0
    3.0846   -1.3324    0.0083 H   0  0  0  0  0  0  0  0  0  0  0  0
    1.6419    1.3410    0.4325 H   0  0  0  0  0  0  0  0  0  0  0  0
    1.8514    0.5201   -1.1382 H   0  0  0  0  0  0  0  0  0  0  0  0
   -2.0269   -0.5514    0.9361 H   0  0  0  0  0  0  0  0  0  0  0  0
   -1.8165   -1.3756   -0.6409 H   0  0  0  0  0  0  0  0  0  0  0  0
   -2.9115    1.4619   -0.2573 H   0  0  0  0  0  0  0  0  0  0  0  0
   -2.7059    0.6565   -1.7984 H   0  0  0  0  0  0  0  0  0  0  0  0
   -4.3495   -1.1146   -1.1055 H   0  0  0  0  0  0  0  0  0  0  0  0
   -5.0622    0.5063   -1.0395 H   0  0  0  0  0  0  0  0  0  0  0  0
   -4.5578   -0.2983    0.4565 H   0  0  0  0  0  0  0  0  0  0  0  0
  1  2  1  0
  2  3  1  0
  3  4  1  0
  4  5  2  0
  4  6  1  0
  6  7  1  0
  7  8  1  0
  8  9  1  0
  1 10  1  0
  1 11  1  0
  1 12  1  0
  2 13  1  0
  2 14  1  0
  3 15  1  0
  3 16  1  0
  7 17  1  0
  7 18  1  0
  8 19  1  0
  8 20  1  0
  9 21  1  0
  9 22  1  0
  9 23  1  0
M  END
$$$$
