
     RDKit          3D

 16 16  0  0  0  0  0  0  0  0999 V2000
    1.2556   -0.5899    0.3373 C   0  0  0  0  0  0  0  0  0  0  0  0
    1.0991    0.9111    0.0142 C   0  0  0  0  0  0  0  0  0  0  0  0
   -0.0284    1.1841   -0.8920 N   0  0  0  0  0  0  0  0  0  0  0  0
   -1.2556    0.5899   -0.3373 C   0  0  0  0  0  0  0  0  0  0  0  0
   -1.0991   -0.9111   -0.0142 C   0  0  0  0  0  0  0  0  0  0  0  0
    0.0284   -1.1841    0.8920 N   0  0  0  0  0  0  0  0  0  0  0  0
    2.0658   -0.7172    1.0636 H   0  0  0  0  0  0  0  0  0  0  0  0
    1.5481   -1.1337   -0.5699 H   0  0  0  0  0  0  0  0  0  0  0  0
    0.9658    1.4767    0.9452 H   0  0  0  0  0  0  0  0  0  0  0  0
    2.0205    1.2746   -0.4535 H   0  0  0  0  0  0  0  0  0  0  0  0
   -0.1538    2.1918   -0.9727 H   0  0  0  0  0  0  0  0  0  0  0  0
   -2.0658    0.7172   -1.0636 H   0  0  0  0  0  0  0  0  0  0  0  0
   -1.5481    1.1337    0.5699 H   0  0  0  0  0  0  0  0  0  0  0  0
   -0.9658   -1.4767   -0.9452 H   0  0  0  0  0  0  0  0  0  0  0  0
   -2.0205   -1.2747    0.4535 H   0  0  0  0  0  0  0  0  0  0  0  0
    0.1538   -2.1918    0.9727 H   0  0  0  0  0  0  0  0  0  0  0  0
  1  2  1  0
  2  3  1  0
  3  4  1  0
  4  5  1  0
  5  6  1  0
  6  1  1  0
  1  7  1  0
  1  8  1  0
  2  9  1  0
  2 10  1  0
  3 11  1  0
  4 12  1  0
  4 13  1  0
  5 14  1  0
  5 15  1  0
  6 16  1  0
M  END
$$$$
