
     RDKit          3D

 40 41  0  0  0  0  0  0  0  0999 V2000
    4.1299   -3.0768   -0.1479 C   0  0  0  0  0  0  0  0  0  0  0  0
    4.2047   -1.7301    0.5425 C   0  0  0  0  0  0  0  0  0  0  0  0
    2.9144   -1.4145    1.0430 O   0  0  0  0  0  0  0  0  0  0  0  0
    2.5297    0.1367    1.3459 P   0  0  0  0  0  5  0  0  0  0  0  0
    3.7513    0.9737    2.6133 S   0  0  0  0  0  0  0  0  0  0  0  0
    2.6603    0.7231   -0.1632 O   0  0  0  0  0  0  0  0  0  0  0  0
    2.3427    2.0837   -0.4117 C   0  0  0  0  0  0  0  0  0  0  0  0
    2.4529    2.3359   -1.9016 C   0  0  0  0  0  0  0  0  0  0  0  0
    0.4819    0.0823    1.8192 S   0  0  0  0  0  0  0  0  0  0  0  0
   -0.2214   -0.8377    0.4072 C   0  0  1  0  0  0  0  0  0  0  0  0
   -0.2131   -2.3502    0.6774 C   0  0  0  0  0  0  0  0  0  0  0  0
   -0.7575   -3.2580   -0.7675 Cl  0  0  0  0  0  0  0  0  0  0  0  0
   -1.5350   -0.2897    0.0913 N   0  0  0  0  0  0  0  0  0  0  0  0
   -2.6972   -0.5598    0.7615 C   0  0  0  0  0  0  0  0  0  0  0  0
   -2.8966   -1.3139    1.6938 O   0  0  0  0  0  0  0  0  0  0  0  0
   -3.7350    0.2703    0.1542 C   0  0  0  0  0  0  0  0  0  0  0  0
   -5.0841    0.3656    0.4338 C   0  0  0  0  0  0  0  0  0  0  0  0
   -5.8306    1.2731   -0.3246 C   0  0  0  0  0  0  0  0  0  0  0  0
   -5.2183    2.0541   -1.3273 C   0  0  0  0  0  0  0  0  0  0  0  0
   -3.8491    1.9410   -1.5886 C   0  0  0  0  0  0  0  0  0  0  0  0
   -3.1357    1.0355   -0.8282 C   0  0  0  0  0  0  0  0  0  0  0  0
   -1.7164    0.6931   -0.8446 C   0  0  0  0  0  0  0  0  0  0  0  0
   -0.8906    1.2321   -1.5569 O   0  0  0  0  0  0  0  0  0  0  0  0
    5.1071   -3.3682   -0.5429 H   0  0  0  0  0  0  0  0  0  0  0  0
    3.7848   -3.8487    0.5479 H   0  0  0  0  0  0  0  0  0  0  0  0
    3.4095   -3.0468   -0.9722 H   0  0  0  0  0  0  0  0  0  0  0  0
    4.5441   -0.9681   -0.1656 H   0  0  0  0  0  0  0  0  0  0  0  0
    4.9096   -1.7780    1.3778 H   0  0  0  0  0  0  0  0  0  0  0  0
    1.3274    2.3001   -0.0687 H   0  0  0  0  0  0  0  0  0  0  0  0
    3.0431    2.7304    0.1243 H   0  0  0  0  0  0  0  0  0  0  0  0
    3.4690    2.1274   -2.2527 H   0  0  0  0  0  0  0  0  0  0  0  0
    2.2029    3.3730   -2.1417 H   0  0  0  0  0  0  0  0  0  0  0  0
    1.7833    1.6719   -2.4577 H   0  0  0  0  0  0  0  0  0  0  0  0
    0.4260   -0.6381   -0.4535 H   0  0  0  0  0  0  0  0  0  0  0  0
   -0.8600   -2.6430    1.5081 H   0  0  0  0  0  0  0  0  0  0  0  0
    0.7921   -2.7160    0.8989 H   0  0  0  0  0  0  0  0  0  0  0  0
   -5.5415   -0.2389    1.2105 H   0  0  0  0  0  0  0  0  0  0  0  0
   -6.8981    1.3808   -0.1390 H   0  0  0  0  0  0  0  0  0  0  0  0
   -5.8215    2.7546   -1.9028 H   0  0  0  0  0  0  0  0  0  0  0  0
   -3.3651    2.5379   -2.3548 H   0  0  0  0  0  0  0  0  0  0  0  0
  1  2  1  0
  2  3  1  0
  3  4  1  0
  4  5  2  0
  4  6  1  0
  6  7  1  0
  7  8  1  0
  4  9  1  0
  9 10  1  0
 10 11  1  0
 11 12  1  0
 10 13  1  0
 13 14  1  0
 14 15  2  0
 14 16  1  0
 16 17  2  0
 17 18  1  0
 18 19  2  0
 19 20  1  0
 20 21  2  0
 21 22  1  0
 22 23  2  0
 22 13  1  0
 21 16  1  0
  1 24  1  0
  1 25  1  0
  1 26  1  0
  2 27  1  0
  2 28  1  0
  7 29  1  0
  7 30  1  0
  8 31  1  0
  8 32  1  0
  8 33  1  0
 10 34  1  6
 11 35  1  0
 11 36  1  0
 17 37  1  0
 18 38  1  0
 19 39  1  0
 20 40  1  0
M  END
$$$$
