
     RDKit          3D

 29 28  0  0  0  0  0  0  0  0999 V2000
    4.2824   -0.3247    0.6991 C   0  0  0  0  0  0  0  0  0  0  0  0
    3.0338   -0.9128    0.1187 C   0  0  0  0  0  0  0  0  0  0  0  0
    2.5808   -2.0116    0.4088 O   0  0  0  0  0  0  0  0  0  0  0  0
    2.4888   -0.0575   -0.7914 O   0  0  0  0  0  0  0  0  0  0  0  0
    1.2468   -0.4995   -1.3674 C   0  0  0  0  0  0  0  0  0  0  0  0
    0.0684   -0.2683   -0.4108 C   0  0  0  0  0  0  0  0  0  0  0  0
   -1.2021   -0.9054   -0.9796 C   0  0  0  0  0  0  0  0  0  0  0  0
   -2.2531   -0.7942   -0.0028 O   0  0  0  0  0  0  0  0  0  0  0  0
   -3.4483   -1.2979   -0.4131 C   0  0  0  0  0  0  0  0  0  0  0  0
   -3.6642   -1.8059   -1.5040 O   0  0  0  0  0  0  0  0  0  0  0  0
   -4.4718   -1.1405    0.6690 C   0  0  0  0  0  0  0  0  0  0  0  0
   -0.1758    1.1584   -0.3025 O   0  0  0  0  0  0  0  0  0  0  0  0
    0.4525    1.8083    0.7138 C   0  0  0  0  0  0  0  0  0  0  0  0
    1.2028    1.3018    1.5352 O   0  0  0  0  0  0  0  0  0  0  0  0
    0.0930    3.2623    0.6848 C   0  0  0  0  0  0  0  0  0  0  0  0
    5.0423   -0.2282   -0.0802 H   0  0  0  0  0  0  0  0  0  0  0  0
    4.6629   -0.9853    1.4833 H   0  0  0  0  0  0  0  0  0  0  0  0
    4.0636    0.6487    1.1452 H   0  0  0  0  0  0  0  0  0  0  0  0
    1.3300   -1.5505   -1.6695 H   0  0  0  0  0  0  0  0  0  0  0  0
    1.1095    0.0911   -2.2803 H   0  0  0  0  0  0  0  0  0  0  0  0
    0.2594   -0.6833    0.5856 H   0  0  0  0  0  0  0  0  0  0  0  0
   -1.5115   -0.3817   -1.8923 H   0  0  0  0  0  0  0  0  0  0  0  0
   -1.0310   -1.9665   -1.1945 H   0  0  0  0  0  0  0  0  0  0  0  0
   -4.1573   -1.6905    1.5595 H   0  0  0  0  0  0  0  0  0  0  0  0
   -5.4269   -1.5488    0.3264 H   0  0  0  0  0  0  0  0  0  0  0  0
   -4.6082   -0.0808    0.8987 H   0  0  0  0  0  0  0  0  0  0  0  0
   -0.9866    3.3799    0.8078 H   0  0  0  0  0  0  0  0  0  0  0  0
    0.4245    3.7071   -0.2568 H   0  0  0  0  0  0  0  0  0  0  0  0
    0.5953    3.7764    1.5093 H   0  0  0  0  0  0  0  0  0  0  0  0
  1  2  1  0
  2  3  2  0
  2  4  1  0
  4  5  1  0
  5  6  1  0
  6  7  1  0
  7  8  1  0
  8  9  1  0
  9 10  2  0
  9 11  1  0
  6 12  1  0
 12 13  1  0
 13 14  2  0
 13 15  1  0
  1 16  1  0
  1 17  1  0
  1 18  1  0
  5 19  1  0
  5 20  1  0
  6 21  1  0
  7 22  1  0
  7 23  1  0
 11 24  1  0
 11 25  1  0
 11 26  1  0
 15 27  1  0
 15 28  1  0
 15 29  1  0
M  END
$$$$
