
     RDKit          3D

 17 16  0  0  0  0  0  0  0  0999 V2000
    2.8954   -0.1230    0.2223 C   0  0  0  0  0  0  0  0  0  0  0  0
    1.5007   -0.5936    0.5936 C   0  0  0  0  0  0  0  0  0  0  0  0
    0.4227    0.3138    0.0136 C   0  0  0  0  0  0  0  0  0  0  0  0
   -0.8543   -0.2027    0.4119 O   0  0  0  0  0  0  0  0  0  0  0  0
   -1.9141    0.5202   -0.0429 C   0  0  0  0  0  0  0  0  0  0  0  0
   -1.8444    1.5276   -0.7324 O   0  0  0  0  0  0  0  0  0  0  0  0
   -3.1950   -0.0991    0.4257 C   0  0  0  0  0  0  0  0  0  0  0  0
    3.0825    0.8867    0.6015 H   0  0  0  0  0  0  0  0  0  0  0  0
    3.6482   -0.7917    0.6512 H   0  0  0  0  0  0  0  0  0  0  0  0
    3.0296   -0.1127   -0.8640 H   0  0  0  0  0  0  0  0  0  0  0  0
    1.3472   -1.6199    0.2388 H   0  0  0  0  0  0  0  0  0  0  0  0
    1.3993   -0.6338    1.6848 H   0  0  0  0  0  0  0  0  0  0  0  0
    0.5410    1.3335    0.3988 H   0  0  0  0  0  0  0  0  0  0  0  0
    0.4876    0.3244   -1.0808 H   0  0  0  0  0  0  0  0  0  0  0  0
   -3.2269   -0.1033    1.5181 H   0  0  0  0  0  0  0  0  0  0  0  0
   -3.2804   -1.1157    0.0337 H   0  0  0  0  0  0  0  0  0  0  0  0
   -4.0390    0.4894    0.0547 H   0  0  0  0  0  0  0  0  0  0  0  0
  1  2  1  0
  2  3  1  0
  3  4  1  0
  4  5  1  0
  5  6  2  0
  5  7  1  0
  1  8  1  0
  1  9  1  0
  1 10  1  0
  2 11  1  0
  2 12  1  0
  3 13  1  0
  3 14  1  0
  7 15  1  0
  7 16  1  0
  7 17  1  0
M  END
$$$$
