
     RDKit          3D

 24 25  0  0  0  0  0  0  0  0999 V2000
   -2.6856   -0.6850   -1.2541 C   0  0  0  0  0  0  0  0  0  0  0  0
   -2.2835   -0.1412    0.1091 C   0  0  0  0  0  0  0  0  0  0  0  0
   -0.9318    0.5416    0.0741 C   0  0  0  0  0  0  0  0  0  0  0  0
   -0.9131    1.9373   -0.1010 C   0  0  0  0  0  0  0  0  0  0  0  0
    0.2886    2.6342   -0.1526 C   0  0  0  0  0  0  0  0  0  0  0  0
    1.4925    1.9468   -0.0346 C   0  0  0  0  0  0  0  0  0  0  0  0
    1.5137    0.5547    0.1324 C   0  0  0  0  0  0  0  0  0  0  0  0
    0.2959   -0.1717    0.1865 C   0  0  0  0  0  0  0  0  0  0  0  0
    0.3817   -1.5741    0.3499 C   0  0  0  0  0  0  0  0  0  0  0  0
    1.6110   -2.2297    0.4584 C   0  0  0  0  0  0  0  0  0  0  0  0
    2.7912   -1.5015    0.4063 C   0  0  0  0  0  0  0  0  0  0  0  0
    2.7419   -0.1186    0.2439 C   0  0  0  0  0  0  0  0  0  0  0  0
   -2.7386    0.1163   -1.9991 H   0  0  0  0  0  0  0  0  0  0  0  0
   -3.6709   -1.1583   -1.1957 H   0  0  0  0  0  0  0  0  0  0  0  0
   -1.9729   -1.4322   -1.6173 H   0  0  0  0  0  0  0  0  0  0  0  0
   -3.0464    0.5715    0.4481 H   0  0  0  0  0  0  0  0  0  0  0  0
   -2.2902   -0.9394    0.8595 H   0  0  0  0  0  0  0  0  0  0  0  0
   -1.8453    2.4901   -0.1990 H   0  0  0  0  0  0  0  0  0  0  0  0
    0.2881    3.7126   -0.2856 H   0  0  0  0  0  0  0  0  0  0  0  0
    2.4220    2.5104   -0.0775 H   0  0  0  0  0  0  0  0  0  0  0  0
   -0.5165   -2.1840    0.3926 H   0  0  0  0  0  0  0  0  0  0  0  0
    1.6409   -3.3088    0.5830 H   0  0  0  0  0  0  0  0  0  0  0  0
    3.7496   -2.0064    0.4903 H   0  0  0  0  0  0  0  0  0  0  0  0
    3.6774    0.4353    0.2036 H   0  0  0  0  0  0  0  0  0  0  0  0
  1  2  1  0
  2  3  1  0
  3  4  2  0
  4  5  1  0
  5  6  2  0
  6  7  1  0
  7  8  2  0
  8  9  1  0
  9 10  2  0
 10 11  1  0
 11 12  2  0
  8  3  1  0
 12  7  1  0
  1 13  1  0
  1 14  1  0
  1 15  1  0
  2 16  1  0
  2 17  1  0
  4 18  1  0
  5 19  1  0
  6 20  1  0
  9 21  1  0
 10 22  1  0
 11 23  1  0
 12 24  1  0
M  END
$$$$
