
     RDKit          3D

  8  7  0  0  0  0  0  0  0  0999 V2000
   -0.9239    0.2667   -0.1491 C   0  0  0  0  0  0  0  0  0  0  0  0
    0.4130   -0.3784    0.0097 C   0  0  0  0  0  0  0  0  0  0  0  0
    0.6277   -1.5341    0.3314 O   0  0  0  0  0  0  0  0  0  0  0  0
    1.4259    0.4698   -0.2465 O   0  0  0  0  0  0  0  0  0  0  0  0
   -1.0187    1.1000    0.5513 H   0  0  0  0  0  0  0  0  0  0  0  0
   -1.0483    0.6130   -1.1781 H   0  0  0  0  0  0  0  0  0  0  0  0
   -1.7067   -0.4649    0.0702 H   0  0  0  0  0  0  0  0  0  0  0  0
    2.2309   -0.0720   -0.1077 H   0  0  0  0  0  0  0  0  0  0  0  0
  1  2  1  0
  2  3  2  0
  2  4  1  0
  1  5  1  0
  1  6  1  0
  1  7  1  0
  4  8  1  0
M  END
$$$$
