
     RDKit          3D

 18 17  0  0  0  0  0  0  0  0999 V2000
    2.1283   -0.0199   -0.1691 C   0  0  0  0  0  0  0  0  0  0  0  0
    0.8755   -0.6753    0.3941 C   0  0  0  0  0  0  0  0  0  0  0  0
   -0.4048   -0.3332   -0.3922 C   0  0  1  0  0  0  0  0  0  0  0  0
   -1.5814   -1.1259    0.1886 C   0  0  0  0  0  0  0  0  0  0  0  0
   -0.7278    1.1669   -0.4050 C   0  0  0  0  0  0  0  0  0  0  0  0
   -0.8507    1.6685    0.9185 O   0  0  0  0  0  0  0  0  0  0  0  0
    2.1010    1.0672   -0.0505 H   0  0  0  0  0  0  0  0  0  0  0  0
    2.2497   -0.2515   -1.2319 H   0  0  0  0  0  0  0  0  0  0  0  0
    3.0135   -0.3868    0.3605 H   0  0  0  0  0  0  0  0  0  0  0  0
    1.0234   -1.7625    0.3771 H   0  0  0  0  0  0  0  0  0  0  0  0
    0.7657   -0.3929    1.4481 H   0  0  0  0  0  0  0  0  0  0  0  0
   -0.2700   -0.6551   -1.4330 H   0  0  0  0  0  0  0  0  0  0  0  0
   -1.3900   -2.2027    0.1290 H   0  0  0  0  0  0  0  0  0  0  0  0
   -2.5011   -0.9214   -0.3698 H   0  0  0  0  0  0  0  0  0  0  0  0
   -1.7585   -0.8732    1.2394 H   0  0  0  0  0  0  0  0  0  0  0  0
   -1.6712    1.3494   -0.9311 H   0  0  0  0  0  0  0  0  0  0  0  0
    0.0550    1.7325   -0.9197 H   0  0  0  0  0  0  0  0  0  0  0  0
   -1.0566    2.6160    0.8468 H   0  0  0  0  0  0  0  0  0  0  0  0
  1  2  1  0
  2  3  1  0
  3  4  1  0
  3  5  1  0
  5  6  1  0
  1  7  1  0
  1  8  1  0
  1  9  1  0
  2 10  1  0
  2 11  1  0
  3 12  1  6
  4 13  1  0
  4 14  1  0
  4 15  1  0
  5 16  1  0
  5 17  1  0
  6 18  1  0
M  END
$$$$
