
     RDKit          3D

  9  8  0  0  0  0  0  0  0  0999 V2000
   -0.9697   -0.2702   -0.0106 C   0  0  0  0  0  0  0  0  0  0  0  0
    0.3056    0.5440    0.1247 C   0  0  0  0  0  0  0  0  0  0  0  0
    1.4908   -0.2716   -0.1654 C   0  0  0  0  0  0  0  0  0  0  0  0
    2.4292   -0.9147   -0.3944 N   0  0  0  0  0  0  0  0  0  0  0  0
   -0.9730   -1.1185    0.6825 H   0  0  0  0  0  0  0  0  0  0  0  0
   -1.8433    0.3518    0.2087 H   0  0  0  0  0  0  0  0  0  0  0  0
   -1.0802   -0.6666   -1.0259 H   0  0  0  0  0  0  0  0  0  0  0  0
    0.2668    1.3979   -0.5605 H   0  0  0  0  0  0  0  0  0  0  0  0
    0.3736    0.9479    1.1408 H   0  0  0  0  0  0  0  0  0  0  0  0
  1  2  1  0
  2  3  1  0
  3  4  3  0
  1  5  1  0
  1  6  1  0
  1  7  1  0
  2  8  1  0
  2  9  1  0
M  END
$$$$
