
     RDKit          3D

 20 19  0  0  0  0  0  0  0  0999 V2000
   -3.4011    0.2224    0.5355 C   0  0  0  0  0  0  0  0  0  0  0  0
   -2.1827   -0.5625    0.0765 C   0  0  0  0  0  0  0  0  0  0  0  0
   -0.9052    0.2623    0.2053 C   0  0  0  0  0  0  0  0  0  0  0  0
    0.3196   -0.5211   -0.2540 C   0  0  0  0  0  0  0  0  0  0  0  0
    1.4694    0.3220   -0.1007 O   0  0  0  0  0  0  0  0  0  0  0  0
    2.6408   -0.2593   -0.4779 C   0  0  0  0  0  0  0  0  0  0  0  0
    2.7628   -1.3947   -0.9151 O   0  0  0  0  0  0  0  0  0  0  0  0
    3.7749    0.6990   -0.2798 C   0  0  0  0  0  0  0  0  0  0  0  0
   -3.5335    1.1280   -0.0651 H   0  0  0  0  0  0  0  0  0  0  0  0
   -4.3046   -0.3871    0.4347 H   0  0  0  0  0  0  0  0  0  0  0  0
   -3.3054    0.5169    1.5854 H   0  0  0  0  0  0  0  0  0  0  0  0
   -2.3244   -0.8692   -0.9663 H   0  0  0  0  0  0  0  0  0  0  0  0
   -2.0976   -1.4769    0.6750 H   0  0  0  0  0  0  0  0  0  0  0  0
   -0.7624    0.5819    1.2452 H   0  0  0  0  0  0  0  0  0  0  0  0
   -0.9875    1.1848   -0.3830 H   0  0  0  0  0  0  0  0  0  0  0  0
    0.4426   -1.4218    0.3589 H   0  0  0  0  0  0  0  0  0  0  0  0
    0.2123   -0.8047   -1.3076 H   0  0  0  0  0  0  0  0  0  0  0  0
    3.8514    0.9696    0.7763 H   0  0  0  0  0  0  0  0  0  0  0  0
    4.7103    0.2217   -0.5858 H   0  0  0  0  0  0  0  0  0  0  0  0
    3.6204    1.5886   -0.8955 H   0  0  0  0  0  0  0  0  0  0  0  0
  1  2  1  0
  2  3  1  0
  3  4  1  0
  4  5  1  0
  5  6  1  0
  6  7  2  0
  6  8  1  0
  1  9  1  0
  1 10  1  0
  1 11  1  0
  2 12  1  0
  2 13  1  0
  3 14  1  0
  3 15  1  0
  4 16  1  0
  4 17  1  0
  8 18  1  0
  8 19  1  0
  8 20  1  0
M  END
$$$$
