
     RDKit          3D

 15 15  0  0  0  0  0  0  0  0999 V2000
    0.3118   -1.1802   -0.2322 C   0  0  0  0  0  0  0  0  0  0  0  0
   -1.0570   -1.0700    0.0270 C   0  0  0  0  0  0  0  0  0  0  0  0
   -1.6023    0.1798    0.3110 C   0  0  0  0  0  0  0  0  0  0  0  0
   -0.8067    1.3221    0.3411 C   0  0  0  0  0  0  0  0  0  0  0  0
    0.5618    1.2227    0.0837 C   0  0  0  0  0  0  0  0  0  0  0  0
    1.1175   -0.0317   -0.2028 C   0  0  0  0  0  0  0  0  0  0  0  0
    2.5559   -0.1455   -0.4749 N   0  0  0  0  0  4  0  0  0  0  0  0
    3.0074   -1.2727   -0.7239 O   0  0  0  0  0  0  0  0  0  0  0  0
    3.2343    0.8910   -0.4398 O   0  0  0  0  0  1  0  0  0  0  0  0
   -2.9317    0.3312    0.5694 O   0  0  0  0  0  0  0  0  0  0  0  0
    0.7326   -2.1591   -0.4535 H   0  0  0  0  0  0  0  0  0  0  0  0
   -1.6764   -1.9619    0.0031 H   0  0  0  0  0  0  0  0  0  0  0  0
   -1.2531    2.2879    0.5650 H   0  0  0  0  0  0  0  0  0  0  0  0
    1.1727    2.1224    0.1102 H   0  0  0  0  0  0  0  0  0  0  0  0
   -3.3669   -0.5359    0.5165 H   0  0  0  0  0  0  0  0  0  0  0  0
  1  2  2  0
  2  3  1  0
  3  4  2  0
  4  5  1  0
  5  6  2  0
  6  7  1  0
  7  8  2  0
  7  9  1  0
  3 10  1  0
  6  1  1  0
  1 11  1  0
  2 12  1  0
  4 13  1  0
  5 14  1  0
 10 15  1  0
M  CHG  2   7   1   9  -1
M  END
$$$$
