
     RDKit          3D

 23 23  0  0  0  0  0  0  0  0999 V2000
    2.8472    0.1844    0.4665 C   0  0  0  0  0  0  0  0  0  0  0  0
    1.6179   -0.6248    0.1338 C   0  0  0  0  0  0  0  0  0  0  0  0
    1.4802   -1.7579    0.5951 O   0  0  0  0  0  0  0  0  0  0  0  0
    0.5798    0.0258   -0.7884 C   0  0  0  0  0  0  0  0  0  0  0  0
   -0.5192   -0.9568   -1.2213 C   0  0  0  0  0  0  0  0  0  0  0  0
   -1.5591   -1.2271   -0.1330 C   0  0  0  0  0  0  0  0  0  0  0  0
   -2.1286    0.0621    0.4472 C   0  0  0  0  0  0  0  0  0  0  0  0
   -1.0237    0.9908    0.9372 C   0  0  0  0  0  0  0  0  0  0  0  0
   -0.0196    1.2949   -0.1721 C   0  0  0  0  0  0  0  0  0  0  0  0
    3.2170    0.6873   -0.4306 H   0  0  0  0  0  0  0  0  0  0  0  0
    3.6336   -0.4819    0.8326 H   0  0  0  0  0  0  0  0  0  0  0  0
    2.6108    0.9170    1.2411 H   0  0  0  0  0  0  0  0  0  0  0  0
    1.1365    0.3067   -1.6926 H   0  0  0  0  0  0  0  0  0  0  0  0
   -1.0351   -0.5376   -2.0951 H   0  0  0  0  0  0  0  0  0  0  0  0
   -0.0797   -1.9072   -1.5470 H   0  0  0  0  0  0  0  0  0  0  0  0
   -1.1122   -1.8199    0.6731 H   0  0  0  0  0  0  0  0  0  0  0  0
   -2.3729   -1.8319   -0.5495 H   0  0  0  0  0  0  0  0  0  0  0  0
   -2.7248    0.5747   -0.3178 H   0  0  0  0  0  0  0  0  0  0  0  0
   -2.8070   -0.1741    1.2747 H   0  0  0  0  0  0  0  0  0  0  0  0
   -0.5082    0.5338    1.7905 H   0  0  0  0  0  0  0  0  0  0  0  0
   -1.4659    1.9268    1.2970 H   0  0  0  0  0  0  0  0  0  0  0  0
    0.7627    1.9533    0.2204 H   0  0  0  0  0  0  0  0  0  0  0  0
   -0.5300    1.8616   -0.9618 H   0  0  0  0  0  0  0  0  0  0  0  0
  1  2  1  0
  2  3  2  0
  2  4  1  0
  4  5  1  0
  5  6  1  0
  6  7  1  0
  7  8  1  0
  8  9  1  0
  9  4  1  0
  1 10  1  0
  1 11  1  0
  1 12  1  0
  4 13  1  0
  5 14  1  0
  5 15  1  0
  6 16  1  0
  6 17  1  0
  7 18  1  0
  7 19  1  0
  8 20  1  0
  8 21  1  0
  9 22  1  0
  9 23  1  0
M  END
$$$$
