
     RDKit          3D

 17 16  0  0  0  0  0  0  0  0999 V2000
   -2.7116    0.5062   -0.2468 C   0  0  0  0  0  0  0  0  0  0  0  0
   -1.2361    0.3768   -0.5918 C   0  0  0  0  0  0  0  0  0  0  0  0
   -0.4806   -0.4169    0.4743 C   0  0  0  0  0  0  0  0  0  0  0  0
    0.9744   -0.5538    0.1232 C   0  0  0  0  0  0  0  0  0  0  0  0
    1.9636   -0.0545    0.8778 C   0  0  0  0  0  0  0  0  0  0  0  0
    3.3749   -0.2280    0.4803 C   0  0  0  0  0  0  0  0  0  0  0  0
    4.2877    0.2232    1.1604 O   0  0  0  0  0  0  0  0  0  0  0  0
   -3.1847   -0.4781   -0.1724 H   0  0  0  0  0  0  0  0  0  0  0  0
   -2.8474    1.0263    0.7068 H   0  0  0  0  0  0  0  0  0  0  0  0
   -3.2334    1.0763   -1.0219 H   0  0  0  0  0  0  0  0  0  0  0  0
   -1.1386   -0.1145   -1.5676 H   0  0  0  0  0  0  0  0  0  0  0  0
   -0.8021    1.3792   -0.6916 H   0  0  0  0  0  0  0  0  0  0  0  0
   -0.6001    0.0694    1.4503 H   0  0  0  0  0  0  0  0  0  0  0  0
   -0.9111   -1.4214    0.5652 H   0  0  0  0  0  0  0  0  0  0  0  0
    1.1982   -1.0997   -0.7913 H   0  0  0  0  0  0  0  0  0  0  0  0
    1.7903    0.4917    1.7978 H   0  0  0  0  0  0  0  0  0  0  0  0
    3.5565   -0.7820   -0.4554 H   0  0  0  0  0  0  0  0  0  0  0  0
  1  2  1  0
  2  3  1  0
  3  4  1  0
  4  5  2  0
  5  6  1  0
  6  7  2  0
  1  8  1  0
  1  9  1  0
  1 10  1  0
  2 11  1  0
  2 12  1  0
  3 13  1  0
  3 14  1  0
  4 15  1  0
  5 16  1  0
  6 17  1  0
M  END
$$$$
