
     RDKit          3D

 21 21  0  0  0  0  0  0  0  0999 V2000
    3.1869    0.1548   -0.9648 C   0  0  0  0  0  0  0  0  0  0  0  0
    1.8075   -0.1107   -1.1937 O   0  0  0  0  0  0  0  0  0  0  0  0
    0.9553    0.0941   -0.1339 C   0  0  0  0  0  0  0  0  0  0  0  0
    1.3282    0.5364    1.1347 C   0  0  0  0  0  0  0  0  0  0  0  0
    0.3570    0.7020    2.1218 C   0  0  0  0  0  0  0  0  0  0  0  0
   -0.9826    0.4262    1.8410 C   0  0  0  0  0  0  0  0  0  0  0  0
   -1.3811   -0.0189    0.5750 C   0  0  0  0  0  0  0  0  0  0  0  0
   -0.4000   -0.1816   -0.4072 C   0  0  0  0  0  0  0  0  0  0  0  0
   -0.7061   -0.6140   -1.6744 O   0  0  0  0  0  0  0  0  0  0  0  0
   -2.7284   -0.2374    0.4846 O   0  0  0  0  0  0  0  0  0  0  0  0
   -3.2495   -0.6919   -0.7556 C   0  0  0  0  0  0  0  0  0  0  0  0
    3.3498    1.2086   -0.7157 H   0  0  0  0  0  0  0  0  0  0  0  0
    3.7252   -0.0543   -1.8942 H   0  0  0  0  0  0  0  0  0  0  0  0
    3.5922   -0.5041   -0.1899 H   0  0  0  0  0  0  0  0  0  0  0  0
    2.3583    0.7602    1.3890 H   0  0  0  0  0  0  0  0  0  0  0  0
    0.6399    1.0465    3.1134 H   0  0  0  0  0  0  0  0  0  0  0  0
   -1.7309    0.5593    2.6196 H   0  0  0  0  0  0  0  0  0  0  0  0
    0.1490   -0.6381   -2.1468 H   0  0  0  0  0  0  0  0  0  0  0  0
   -4.3314   -0.8079   -0.6346 H   0  0  0  0  0  0  0  0  0  0  0  0
   -3.0915    0.0460   -1.5484 H   0  0  0  0  0  0  0  0  0  0  0  0
   -2.8479   -1.6751   -1.0200 H   0  0  0  0  0  0  0  0  0  0  0  0
  1  2  1  0
  2  3  1  0
  3  4  2  0
  4  5  1  0
  5  6  2  0
  6  7  1  0
  7  8  2  0
  8  9  1  0
  7 10  1  0
 10 11  1  0
  8  3  1  0
  1 12  1  0
  1 13  1  0
  1 14  1  0
  4 15  1  0
  5 16  1  0
  6 17  1  0
  9 18  1  0
 11 19  1  0
 11 20  1  0
 11 21  1  0
M  END
$$$$
