
     RDKit          3D

 23 22  0  0  0  0  0  0  0  0999 V2000
    2.6828    1.0519    0.3491 C   0  0  0  0  0  0  0  0  0  0  0  0
    1.4367    0.4605   -0.2943 C   0  0  0  0  0  0  0  0  0  0  0  0
    0.5565   -0.2404    0.7441 C   0  0  0  0  0  0  0  0  0  0  0  0
   -0.7284   -0.8882    0.1870 C   0  0  2  0  0  0  0  0  0  0  0  0
   -0.4036   -2.0670   -0.7365 C   0  0  0  0  0  0  0  0  0  0  0  0
   -1.6770    0.0891   -0.5322 C   0  0  0  0  0  0  0  0  0  0  0  0
   -2.1340    1.2504    0.3389 C   0  0  0  0  0  0  0  0  0  0  0  0
    3.2995    1.5489   -0.4063 H   0  0  0  0  0  0  0  0  0  0  0  0
    3.2881    0.2720    0.8221 H   0  0  0  0  0  0  0  0  0  0  0  0
    2.4174    1.7916    1.1112 H   0  0  0  0  0  0  0  0  0  0  0  0
    0.8817    1.2670   -0.7846 H   0  0  0  0  0  0  0  0  0  0  0  0
    1.7456   -0.2452   -1.0723 H   0  0  0  0  0  0  0  0  0  0  0  0
    1.1491   -1.0172    1.2452 H   0  0  0  0  0  0  0  0  0  0  0  0
    0.2862    0.4769    1.5287 H   0  0  0  0  0  0  0  0  0  0  0  0
   -1.2707   -1.3010    1.0489 H   0  0  0  0  0  0  0  0  0  0  0  0
    0.2699   -2.7760   -0.2437 H   0  0  0  0  0  0  0  0  0  0  0  0
   -1.3174   -2.6092   -1.0029 H   0  0  0  0  0  0  0  0  0  0  0  0
    0.0680   -1.7364   -1.6673 H   0  0  0  0  0  0  0  0  0  0  0  0
   -1.2095    0.4817   -1.4425 H   0  0  0  0  0  0  0  0  0  0  0  0
   -2.5687   -0.4612   -0.8589 H   0  0  0  0  0  0  0  0  0  0  0  0
   -2.5817    0.8905    1.2706 H   0  0  0  0  0  0  0  0  0  0  0  0
   -2.8866    1.8429   -0.1913 H   0  0  0  0  0  0  0  0  0  0  0  0
   -1.3040    1.9183    0.5870 H   0  0  0  0  0  0  0  0  0  0  0  0
  1  2  1  0
  2  3  1  0
  3  4  1  0
  4  5  1  0
  4  6  1  0
  6  7  1  0
  1  8  1  0
  1  9  1  0
  1 10  1  0
  2 11  1  0
  2 12  1  0
  3 13  1  0
  3 14  1  0
  4 15  1  1
  5 16  1  0
  5 17  1  0
  5 18  1  0
  6 19  1  0
  6 20  1  0
  7 21  1  0
  7 22  1  0
  7 23  1  0
M  END
$$$$
