
     RDKit          3D

 16 15  0  0  0  0  0  0  0  0999 V2000
    2.9705   -0.2120   -0.0917 C   0  0  0  0  0  0  0  0  0  0  0  0
    1.6162   -0.3035   -0.5138 O   0  0  0  0  0  0  0  0  0  0  0  0
    0.7176    0.0570    0.5351 C   0  0  0  0  0  0  0  0  0  0  0  0
   -0.7176   -0.0570    0.0339 C   0  0  0  0  0  0  0  0  0  0  0  0
   -1.6162    0.3035    1.0829 O   0  0  0  0  0  0  0  0  0  0  0  0
   -2.9705    0.2120    0.6607 C   0  0  0  0  0  0  0  0  0  0  0  0
    3.1592   -0.8955    0.7418 H   0  0  0  0  0  0  0  0  0  0  0  0
    3.2126    0.8146    0.1998 H   0  0  0  0  0  0  0  0  0  0  0  0
    3.6123   -0.4976   -0.9294 H   0  0  0  0  0  0  0  0  0  0  0  0
    0.8631   -0.6036    1.3984 H   0  0  0  0  0  0  0  0  0  0  0  0
    0.9158    1.0845    0.8633 H   0  0  0  0  0  0  0  0  0  0  0  0
   -0.9158   -1.0845   -0.2943 H   0  0  0  0  0  0  0  0  0  0  0  0
   -0.8631    0.6036   -0.8293 H   0  0  0  0  0  0  0  0  0  0  0  0
   -3.2126   -0.8146    0.3692 H   0  0  0  0  0  0  0  0  0  0  0  0
   -3.6123    0.4976    1.4985 H   0  0  0  0  0  0  0  0  0  0  0  0
   -3.1591    0.8955   -0.1728 H   0  0  0  0  0  0  0  0  0  0  0  0
  1  2  1  0
  2  3  1  0
  3  4  1  0
  4  5  1  0
  5  6  1  0
  1  7  1  0
  1  8  1  0
  1  9  1  0
  3 10  1  0
  3 11  1  0
  4 12  1  0
  4 13  1  0
  6 14  1  0
  6 15  1  0
  6 16  1  0
M  END
$$$$
