
     RDKit          3D

 22 22  0  0  0  0  0  0  0  0999 V2000
   -4.2465   -0.2289    0.0126 C   0  0  0  0  0  0  0  0  0  0  0  0
   -3.1824   -0.6623    0.8509 O   0  0  0  0  0  0  0  0  0  0  0  0
   -1.9116   -0.3771    0.4353 C   0  0  0  0  0  0  0  0  0  0  0  0
   -1.5621    0.2990   -0.7337 C   0  0  0  0  0  0  0  0  0  0  0  0
   -0.2141    0.5245   -1.0387 C   0  0  0  0  0  0  0  0  0  0  0  0
    0.7970    0.0765   -0.1782 C   0  0  0  0  0  0  0  0  0  0  0  0
    0.4442   -0.6014    0.9939 C   0  0  0  0  0  0  0  0  0  0  0  0
   -0.9034   -0.8241    1.2938 C   0  0  0  0  0  0  0  0  0  0  0  0
    2.2118    0.3450   -0.5543 C   0  0  0  0  0  0  0  0  0  0  0  0
    2.5376    0.9347   -1.5727 O   0  0  0  0  0  0  0  0  0  0  0  0
    3.0598   -0.1516    0.3807 O   0  0  0  0  0  0  0  0  0  0  0  0
    4.4400    0.0689    0.0868 C   0  0  0  0  0  0  0  0  0  0  0  0
   -4.2568    0.8622   -0.0798 H   0  0  0  0  0  0  0  0  0  0  0  0
   -4.1954   -0.7092   -0.9702 H   0  0  0  0  0  0  0  0  0  0  0  0
   -5.1870   -0.5320    0.4826 H   0  0  0  0  0  0  0  0  0  0  0  0
   -2.3094    0.6644   -1.4303 H   0  0  0  0  0  0  0  0  0  0  0  0
    0.0430    1.0537   -1.9549 H   0  0  0  0  0  0  0  0  0  0  0  0
    1.2019   -0.9629    1.6842 H   0  0  0  0  0  0  0  0  0  0  0  0
   -1.1707   -1.3518    2.2068 H   0  0  0  0  0  0  0  0  0  0  0  0
    5.0323   -0.3666    0.8963 H   0  0  0  0  0  0  0  0  0  0  0  0
    4.7166   -0.4259   -0.8495 H   0  0  0  0  0  0  0  0  0  0  0  0
    4.6553    1.1409    0.0382 H   0  0  0  0  0  0  0  0  0  0  0  0
  1  2  1  0
  2  3  1  0
  3  4  2  0
  4  5  1  0
  5  6  2  0
  6  7  1  0
  7  8  2  0
  6  9  1  0
  9 10  2  0
  9 11  1  0
 11 12  1  0
  8  3  1  0
  1 13  1  0
  1 14  1  0
  1 15  1  0
  4 16  1  0
  5 17  1  0
  7 18  1  0
  8 19  1  0
 12 20  1  0
 12 21  1  0
 12 22  1  0
M  END
$$$$
