
     RDKit          3D

 31 32  0  0  0  0  0  0  0  0999 V2000
   -3.7246    0.3971    1.4505 C   0  0  0  0  0  0  0  0  0  0  0  0
   -3.2450    0.8118    0.0578 C   0  0  1  0  0  0  0  0  0  0  0  0
   -1.7303    0.8068   -0.0442 C   0  0  0  0  0  0  0  0  0  0  0  0
   -1.0415    2.0001   -0.2923 C   0  0  0  0  0  0  0  0  0  0  0  0
    0.3524    2.0103   -0.3876 C   0  0  0  0  0  0  0  0  0  0  0  0
    1.0920    0.8278   -0.2385 C   0  0  0  0  0  0  0  0  0  0  0  0
    2.4938    0.8208   -0.3317 C   0  0  0  0  0  0  0  0  0  0  0  0
    3.2257   -0.3612   -0.1839 C   0  0  0  0  0  0  0  0  0  0  0  0
    2.5504   -1.5546    0.0602 C   0  0  0  0  0  0  0  0  0  0  0  0
    1.1544   -1.5644    0.1559 C   0  0  0  0  0  0  0  0  0  0  0  0
    0.4120   -0.3825    0.0095 C   0  0  0  0  0  0  0  0  0  0  0  0
   -0.9905   -0.3788    0.1036 C   0  0  0  0  0  0  0  0  0  0  0  0
    4.5807   -0.2124   -0.3000 O   0  0  0  0  0  0  0  0  0  0  0  0
    5.3708   -1.3860   -0.1580 C   0  0  0  0  0  0  0  0  0  0  0  0
   -3.8840   -0.0666   -1.0019 C   0  0  0  0  0  0  0  0  0  0  0  0
   -4.1706   -1.2494   -0.9022 O   0  0  0  0  0  0  0  0  0  0  0  0
   -4.1154    0.5922   -2.1570 O   0  0  0  0  0  0  0  0  0  0  0  0
   -4.8172    0.4514    1.5134 H   0  0  0  0  0  0  0  0  0  0  0  0
   -3.3071    1.0550    2.2207 H   0  0  0  0  0  0  0  0  0  0  0  0
   -3.4368   -0.6310    1.6972 H   0  0  0  0  0  0  0  0  0  0  0  0
   -3.6206    1.8309   -0.1072 H   0  0  0  0  0  0  0  0  0  0  0  0
   -1.5823    2.9361   -0.4162 H   0  0  0  0  0  0  0  0  0  0  0  0
    0.8593    2.9532   -0.5813 H   0  0  0  0  0  0  0  0  0  0  0  0
    3.0320    1.7468   -0.5227 H   0  0  0  0  0  0  0  0  0  0  0  0
    3.0750   -2.4962    0.1814 H   0  0  0  0  0  0  0  0  0  0  0  0
    0.6484   -2.5086    0.3466 H   0  0  0  0  0  0  0  0  0  0  0  0
   -1.5128   -1.3166    0.2910 H   0  0  0  0  0  0  0  0  0  0  0  0
    5.1357   -2.1172   -0.9385 H   0  0  0  0  0  0  0  0  0  0  0  0
    6.4201   -1.0989   -0.2765 H   0  0  0  0  0  0  0  0  0  0  0  0
    5.2556   -1.8212    0.8402 H   0  0  0  0  0  0  0  0  0  0  0  0
   -4.4797   -0.0948   -2.7534 H   0  0  0  0  0  0  0  0  0  0  0  0
  1  2  1  0
  2  3  1  0
  3  4  2  0
  4  5  1  0
  5  6  2  0
  6  7  1  0
  7  8  2  0
  8  9  1  0
  9 10  2  0
 10 11  1  0
 11 12  2  0
  8 13  1  0
 13 14  1  0
  2 15  1  0
 15 16  2  0
 15 17  1  0
 12  3  1  0
 11  6  1  0
  1 18  1  0
  1 19  1  0
  1 20  1  0
  2 21  1  6
  4 22  1  0
  5 23  1  0
  7 24  1  0
  9 25  1  0
 10 26  1  0
 12 27  1  0
 14 28  1  0
 14 29  1  0
 14 30  1  0
 17 31  1  0
M  END
$$$$
