
     RDKit          3D

 14 14  0  0  0  0  0  0  0  0999 V2000
    2.1845   -0.2726   -0.3072 C   0  0  0  0  0  0  0  0  0  0  0  0
    0.7005   -0.1761   -0.1177 C   0  0  0  0  0  0  0  0  0  0  0  0
    0.1159    1.0437    0.2121 C   0  0  0  0  0  0  0  0  0  0  0  0
   -1.2645    1.1026    0.3818 C   0  0  0  0  0  0  0  0  0  0  0  0
   -2.0200   -0.0517    0.2185 C   0  0  0  0  0  0  0  0  0  0  0  0
   -1.3591   -1.2230   -0.1095 C   0  0  0  0  0  0  0  0  0  0  0  0
   -0.0216   -1.3101   -0.2803 N   0  0  0  0  0  0  0  0  0  0  0  0
    2.5055    0.3865   -1.1198 H   0  0  0  0  0  0  0  0  0  0  0  0
    2.4794   -1.2957   -0.5616 H   0  0  0  0  0  0  0  0  0  0  0  0
    2.7026    0.0124    0.6137 H   0  0  0  0  0  0  0  0  0  0  0  0
    0.7223    1.9350    0.3355 H   0  0  0  0  0  0  0  0  0  0  0  0
   -1.7454    2.0418    0.6392 H   0  0  0  0  0  0  0  0  0  0  0  0
   -3.0966   -0.0401    0.3434 H   0  0  0  0  0  0  0  0  0  0  0  0
   -1.9034   -2.1526   -0.2482 H   0  0  0  0  0  0  0  0  0  0  0  0
  1  2  1  0
  2  3  2  0
  3  4  1  0
  4  5  2  0
  5  6  1  0
  6  7  2  0
  7  2  1  0
  1  8  1  0
  1  9  1  0
  1 10  1  0
  3 11  1  0
  4 12  1  0
  5 13  1  0
  6 14  1  0
M  END
$$$$
