
     RDKit          3D

 24 24  0  0  0  0  0  0  0  0999 V2000
    3.4788    0.1662   -0.2161 C   0  0  0  0  0  0  0  0  0  0  0  0
    2.0318    0.5586   -0.4716 C   0  0  0  0  0  0  0  0  0  0  0  0
    1.0812   -0.1566    0.4900 C   0  0  0  0  0  0  0  0  0  0  0  0
   -0.3756    0.2700    0.3007 C   0  0  0  0  0  0  0  0  0  0  0  0
   -1.3209   -0.4258    1.2779 C   0  0  0  0  0  0  0  0  0  0  0  0
   -2.6987   -0.1771    0.6797 C   0  0  0  0  0  0  0  0  0  0  0  0
   -2.4850   -0.0973   -0.8314 C   0  0  0  0  0  0  0  0  0  0  0  0
   -0.9737   -0.1095   -1.0535 C   0  0  0  0  0  0  0  0  0  0  0  0
    3.6226   -0.9106   -0.3503 H   0  0  0  0  0  0  0  0  0  0  0  0
    3.7831    0.4298    0.8019 H   0  0  0  0  0  0  0  0  0  0  0  0
    4.1416    0.6872   -0.9141 H   0  0  0  0  0  0  0  0  0  0  0  0
    1.9288    1.6440   -0.3584 H   0  0  0  0  0  0  0  0  0  0  0  0
    1.7771    0.3136   -1.5086 H   0  0  0  0  0  0  0  0  0  0  0  0
    1.3823    0.0594    1.5229 H   0  0  0  0  0  0  0  0  0  0  0  0
    1.1755   -1.2417    0.3558 H   0  0  0  0  0  0  0  0  0  0  0  0
   -0.4577    1.3568    0.4386 H   0  0  0  0  0  0  0  0  0  0  0  0
   -1.1201   -1.5035    1.3175 H   0  0  0  0  0  0  0  0  0  0  0  0
   -1.2376   -0.0281    2.2940 H   0  0  0  0  0  0  0  0  0  0  0  0
   -3.1008    0.7752    1.0454 H   0  0  0  0  0  0  0  0  0  0  0  0
   -3.4099   -0.9622    0.9544 H   0  0  0  0  0  0  0  0  0  0  0  0
   -2.9297    0.8230   -1.2262 H   0  0  0  0  0  0  0  0  0  0  0  0
   -2.9599   -0.9376   -1.3488 H   0  0  0  0  0  0  0  0  0  0  0  0
   -0.6548   -1.1160   -1.3514 H   0  0  0  0  0  0  0  0  0  0  0  0
   -0.6783    0.5823   -1.8485 H   0  0  0  0  0  0  0  0  0  0  0  0
  1  2  1  0
  2  3  1  0
  3  4  1  0
  4  5  1  0
  5  6  1  0
  6  7  1  0
  7  8  1  0
  8  4  1  0
  1  9  1  0
  1 10  1  0
  1 11  1  0
  2 12  1  0
  2 13  1  0
  3 14  1  0
  3 15  1  0
  4 16  1  0
  5 17  1  0
  5 18  1  0
  6 19  1  0
  6 20  1  0
  7 21  1  0
  7 22  1  0
  8 23  1  0
  8 24  1  0
M  END
$$$$
