
     RDKit          3D

 13 13  0  0  0  0  0  0  0  0999 V2000
    0.7750    0.9506   -0.8789 C   0  0  0  0  0  0  0  0  0  0  0  0
   -0.4858    0.3978   -1.1108 C   0  0  0  0  0  0  0  0  0  0  0  0
   -1.0381   -0.4679   -0.1695 C   0  0  0  0  0  0  0  0  0  0  0  0
   -0.3527   -0.7896    0.9969 C   0  0  0  0  0  0  0  0  0  0  0  0
    0.9045   -0.2345    1.2217 C   0  0  0  0  0  0  0  0  0  0  0  0
    1.4721    0.6344    0.2891 C   0  0  0  0  0  0  0  0  0  0  0  0
    1.7667   -0.6218    2.6600 Cl  0  0  0  0  0  0  0  0  0  0  0  0
   -2.2667   -1.0289   -0.3583 O   0  0  0  0  0  0  0  0  0  0  0  0
    1.2155    1.6275   -1.6068 H   0  0  0  0  0  0  0  0  0  0  0  0
   -1.0176    0.6515   -2.0227 H   0  0  0  0  0  0  0  0  0  0  0  0
   -0.7995   -1.4663    1.7187 H   0  0  0  0  0  0  0  0  0  0  0  0
    2.4534    1.0666    0.4664 H   0  0  0  0  0  0  0  0  0  0  0  0
   -2.6266   -0.7194   -1.2059 H   0  0  0  0  0  0  0  0  0  0  0  0
  1  2  2  0
  2  3  1  0
  3  4  2  0
  4  5  1  0
  5  6  2  0
  5  7  1  0
  3  8  1  0
  6  1  1  0
  1  9  1  0
  2 10  1  0
  4 11  1  0
  6 12  1  0
  8 13  1  0
M  END
$$$$
