
     RDKit          3D

 19 18  0  0  0  0  0  0  0  0999 V2000
    2.9270    0.4865   -0.3722 C   0  0  0  0  0  0  0  0  0  0  0  0
    1.7128    0.1315    0.4712 C   0  0  0  0  0  0  0  0  0  0  0  0
    0.4374    0.0953   -0.3705 C   0  0  0  0  0  0  0  0  0  0  0  0
   -0.7822   -0.2623    0.4815 C   0  0  0  0  0  0  0  0  0  0  0  0
   -2.0547   -0.2976   -0.3631 C   0  0  0  0  0  0  0  0  0  0  0  0
   -3.2026   -0.6481    0.4650 N   0  0  0  0  0  0  0  0  0  0  0  0
    3.0803   -0.2490   -1.1684 H   0  0  0  0  0  0  0  0  0  0  0  0
    3.8275    0.5067    0.2495 H   0  0  0  0  0  0  0  0  0  0  0  0
    2.8099    1.4727   -0.8328 H   0  0  0  0  0  0  0  0  0  0  0  0
    1.6069    0.8676    1.2766 H   0  0  0  0  0  0  0  0  0  0  0  0
    1.8757   -0.8446    0.9429 H   0  0  0  0  0  0  0  0  0  0  0  0
    0.5504   -0.6394   -1.1771 H   0  0  0  0  0  0  0  0  0  0  0  0
    0.2814    1.0727   -0.8433 H   0  0  0  0  0  0  0  0  0  0  0  0
   -0.8914    0.4731    1.2888 H   0  0  0  0  0  0  0  0  0  0  0  0
   -0.6235   -1.2397    0.9547 H   0  0  0  0  0  0  0  0  0  0  0  0
   -2.2279    0.6788   -0.8288 H   0  0  0  0  0  0  0  0  0  0  0  0
   -1.9544   -1.0369   -1.1650 H   0  0  0  0  0  0  0  0  0  0  0  0
   -3.3229    0.0495    1.1983 H   0  0  0  0  0  0  0  0  0  0  0  0
   -4.0496   -0.6167   -0.1009 H   0  0  0  0  0  0  0  0  0  0  0  0
  1  2  1  0
  2  3  1  0
  3  4  1  0
  4  5  1  0
  5  6  1  0
  1  7  1  0
  1  8  1  0
  1  9  1  0
  2 10  1  0
  2 11  1  0
  3 12  1  0
  3 13  1  0
  4 14  1  0
  4 15  1  0
  5 16  1  0
  5 17  1  0
  6 18  1  0
  6 19  1  0
M  END
$$$$
