
     RDKit          3D

 22 21  0  0  0  0  0  0  0  0999 V2000
   -3.5535   -0.2464    1.0551 C   0  0  0  0  0  0  0  0  0  0  0  0
   -2.4898   -0.4561   -0.0107 C   0  0  0  0  0  0  0  0  0  0  0  0
   -1.1134   -0.0149    0.4786 C   0  0  0  0  0  0  0  0  0  0  0  0
   -0.0435   -0.2232   -0.5867 C   0  0  0  0  0  0  0  0  0  0  0  0
    1.2079    0.2111   -0.0541 O   0  0  0  0  0  0  0  0  0  0  0  0
    2.2692    0.0457   -1.0035 C   0  0  0  0  0  0  0  0  0  0  0  0
    3.5614    0.5237   -0.3507 C   0  0  0  0  0  0  0  0  0  0  0  0
    3.8276   -0.2560    0.8143 O   0  0  0  0  0  0  0  0  0  0  0  0
   -3.3250   -0.8243    1.9563 H   0  0  0  0  0  0  0  0  0  0  0  0
   -4.5311   -0.5690    0.6835 H   0  0  0  0  0  0  0  0  0  0  0  0
   -3.6273    0.8098    1.3333 H   0  0  0  0  0  0  0  0  0  0  0  0
   -2.7646    0.1090   -0.9090 H   0  0  0  0  0  0  0  0  0  0  0  0
   -2.4640   -1.5159   -0.2893 H   0  0  0  0  0  0  0  0  0  0  0  0
   -1.1346    1.0429    0.7695 H   0  0  0  0  0  0  0  0  0  0  0  0
   -0.8364   -0.5691    1.3842 H   0  0  0  0  0  0  0  0  0  0  0  0
   -0.2813    0.3607   -1.4832 H   0  0  0  0  0  0  0  0  0  0  0  0
    0.0221   -1.2835   -0.8564 H   0  0  0  0  0  0  0  0  0  0  0  0
    2.0592    0.6333   -1.9033 H   0  0  0  0  0  0  0  0  0  0  0  0
    2.3500   -1.0162   -1.2612 H   0  0  0  0  0  0  0  0  0  0  0  0
    4.4076    0.4233   -1.0358 H   0  0  0  0  0  0  0  0  0  0  0  0
    3.4769    1.5687   -0.0364 H   0  0  0  0  0  0  0  0  0  0  0  0
    2.9825   -0.2719    1.3056 H   0  0  0  0  0  0  0  0  0  0  0  0
  1  2  1  0
  2  3  1  0
  3  4  1  0
  4  5  1  0
  5  6  1  0
  6  7  1  0
  7  8  1  0
  1  9  1  0
  1 10  1  0
  1 11  1  0
  2 12  1  0
  2 13  1  0
  3 14  1  0
  3 15  1  0
  4 16  1  0
  4 17  1  0
  6 18  1  0
  6 19  1  0
  7 20  1  0
  7 21  1  0
  8 22  1  0
M  END
$$$$
