
     RDKit          3D

 27 31  0  0  0  0  0  0  0  0999 V2000
   -1.4638   -0.5744    1.3505 C   0  0  0  0  0  0  0  0  0  0  0  0
   -1.1835   -1.3280    0.0456 C   0  0  2  0  0  0  0  0  0  0  0  0
    0.0829   -0.6523   -0.5559 C   0  0  1  0  0  0  0  0  0  0  0  0
   -0.0872    0.8506   -0.1010 C   0  0  1  0  0  0  0  0  0  0  0  0
   -1.4253    0.8093    0.6926 C   0  0  1  0  0  0  0  0  0  0  0  0
   -2.5074    0.6278   -0.3948 C   0  0  1  0  0  0  0  0  0  0  0  0
   -2.3450   -0.8066   -0.8290 C   0  0  2  0  0  0  0  0  0  0  0  0
   -3.5319   -0.3458   -0.1779 O   0  0  0  0  0  0  0  0  0  0  0  0
    1.3409    1.1952    0.4465 C   0  0  2  0  0  0  0  0  0  0  0  0
    2.1688    1.2070   -0.8436 C   0  0  0  0  0  0  0  0  0  0  0  0
    2.3135   -0.0719   -1.2307 C   0  0  0  0  0  0  0  0  0  0  0  0
    1.5825   -0.9391   -0.1996 C   0  0  1  0  0  0  0  0  0  0  0  0
    1.9731   -0.0955    1.0529 C   0  0  0  0  0  0  0  0  0  0  0  0
    3.7993    0.0283    1.3268 Cl  0  0  0  0  0  0  0  0  0  0  0  0
    1.4381   -0.6399    2.6512 Cl  0  0  0  0  0  0  0  0  0  0  0  0
    2.0027   -2.6343   -0.1641 Cl  0  0  0  0  0  0  0  0  0  0  0  0
    3.0459   -0.6634   -2.6369 Cl  0  0  0  0  0  0  0  0  0  0  0  0
    2.6757    2.6076   -1.6467 Cl  0  0  0  0  0  0  0  0  0  0  0  0
    1.4062    2.6364    1.4315 Cl  0  0  0  0  0  0  0  0  0  0  0  0
   -2.4453   -0.8151    1.7785 H   0  0  0  0  0  0  0  0  0  0  0  0
   -0.7762   -0.7390    2.1513 H   0  0  0  0  0  0  0  0  0  0  0  0
   -1.1518   -2.4157    0.1177 H   0  0  0  0  0  0  0  0  0  0  0  0
   -0.0175   -0.7218   -1.6513 H   0  0  0  0  0  0  0  0  0  0  0  0
   -0.2674    1.4869   -0.9827 H   0  0  0  0  0  0  0  0  0  0  0  0
   -1.6128    1.6584    1.3509 H   0  0  0  0  0  0  0  0  0  0  0  0
   -2.6489    1.4200   -1.1117 H   0  0  0  0  0  0  0  0  0  0  0  0
   -2.3655   -1.0849   -1.8700 H   0  0  0  0  0  0  0  0  0  0  0  0
  1  2  1  0
  2  3  1  0
  3  4  1  0
  4  5  1  0
  5  6  1  0
  6  7  1  0
  7  8  1  0
  4  9  1  0
  9 10  1  0
 10 11  2  0
 11 12  1  0
 12 13  1  0
 13 14  1  0
 13 15  1  0
 12 16  1  1
 11 17  1  0
 10 18  1  0
  9 19  1  1
  5  1  1  0
  7  2  1  0
 12  3  1  0
  8  6  1  0
 13  9  1  0
  1 20  1  0
  1 21  1  0
  2 22  1  1
  3 23  1  6
  4 24  1  6
  5 25  1  1
  6 26  1  6
  7 27  1  6
M  END
$$$$
