
     RDKit          3D

 25 25  0  0  0  0  0  0  0  0999 V2000
   -4.5765   -0.0010    1.1730 C   0  0  0  0  0  0  0  0  0  0  0  0
   -3.4892   -0.1428    0.1193 C   0  0  0  0  0  0  0  0  0  0  0  0
   -2.2270    0.3238    0.6652 N   0  0  0  0  0  0  0  0  0  0  0  0
   -1.1318    0.1871   -0.1788 C   0  0  0  0  0  0  0  0  0  0  0  0
    0.0282   -0.0442    0.4260 N   0  0  0  0  0  0  0  0  0  0  0  0
    1.0965   -0.1652   -0.3543 C   0  0  0  0  0  0  0  0  0  0  0  0
    1.0681   -0.0648   -1.6701 N   0  0  0  0  0  0  0  0  0  0  0  0
   -0.1425    0.1612   -2.1533 C   0  0  0  0  0  0  0  0  0  0  0  0
   -1.2770    0.2956   -1.4861 N   0  0  0  0  0  0  0  0  0  0  0  0
   -0.2551    0.2967   -3.8540 Cl  0  0  0  0  0  0  0  0  0  0  0  0
    2.2913   -0.4217    0.3067 N   0  0  0  0  0  0  0  0  0  0  0  0
    3.4760    0.1382   -0.3193 C   0  0  0  0  0  0  0  0  0  0  0  0
    4.6903   -0.1565    0.5472 C   0  0  0  0  0  0  0  0  0  0  0  0
   -5.5382   -0.3413    0.7769 H   0  0  0  0  0  0  0  0  0  0  0  0
   -4.3424   -0.5961    2.0622 H   0  0  0  0  0  0  0  0  0  0  0  0
   -4.6845    1.0426    1.4874 H   0  0  0  0  0  0  0  0  0  0  0  0
   -3.4152   -1.1953   -0.1801 H   0  0  0  0  0  0  0  0  0  0  0  0
   -3.7756    0.4476   -0.7592 H   0  0  0  0  0  0  0  0  0  0  0  0
   -1.9586   -0.0841    1.5550 H   0  0  0  0  0  0  0  0  0  0  0  0
    2.1461   -0.1619    1.2771 H   0  0  0  0  0  0  0  0  0  0  0  0
    3.3744    1.2239   -0.4369 H   0  0  0  0  0  0  0  0  0  0  0  0
    3.6387   -0.3033   -1.3097 H   0  0  0  0  0  0  0  0  0  0  0  0
    5.5954    0.2520    0.0873 H   0  0  0  0  0  0  0  0  0  0  0  0
    4.5810    0.2886    1.5420 H   0  0  0  0  0  0  0  0  0  0  0  0
    4.8277   -1.2354    0.6764 H   0  0  0  0  0  0  0  0  0  0  0  0
  1  2  1  0
  2  3  1  0
  3  4  1  0
  4  5  2  0
  5  6  1  0
  6  7  2  0
  7  8  1  0
  8  9  2  0
  8 10  1  0
  6 11  1  0
 11 12  1  0
 12 13  1  0
  9  4  1  0
  1 14  1  0
  1 15  1  0
  1 16  1  0
  2 17  1  0
  2 18  1  0
  3 19  1  0
 11 20  1  0
 12 21  1  0
 12 22  1  0
 13 23  1  0
 13 24  1  0
 13 25  1  0
M  END
$$$$
