
     RDKit          3D

  8  7  0  0  0  0  0  0  0  0999 V2000
   -1.0084   -0.1609    0.0505 C   0  0  0  0  0  0  0  0  0  0  0  0
    0.2758   -0.7711   -0.0822 O   0  0  0  0  0  0  0  0  0  0  0  0
    1.3046    0.1121   -0.0734 C   0  0  0  0  0  0  0  0  0  0  0  0
    1.2234    1.3249    0.0334 O   0  0  0  0  0  0  0  0  0  0  0  0
   -1.7632   -0.9519    0.0321 H   0  0  0  0  0  0  0  0  0  0  0  0
   -1.1985    0.5188   -0.7862 H   0  0  0  0  0  0  0  0  0  0  0  0
   -1.0847    0.3685    1.0055 H   0  0  0  0  0  0  0  0  0  0  0  0
    2.2511   -0.4403   -0.1798 H   0  0  0  0  0  0  0  0  0  0  0  0
  1  2  1  0
  2  3  1  0
  3  4  2  0
  1  5  1  0
  1  6  1  0
  1  7  1  0
  3  8  1  0
M  END
$$$$
