
     RDKit          3D

 24 24  0  0  0  0  0  0  0  0999 V2000
   -1.4976   -1.6086   -0.5949 C   0  0  0  0  0  0  0  0  0  0  0  0
   -1.0887   -0.1487   -0.2950 C   0  0  0  0  0  0  0  0  0  0  0  0
   -1.3969    0.6804   -1.5605 C   0  0  0  0  0  0  0  0  0  0  0  0
   -1.9796    0.3453    0.8653 C   0  0  0  0  0  0  0  0  0  0  0  0
    0.3934    0.0170    0.0839 C   0  0  0  0  0  0  0  0  0  0  0  0
    1.2864   -1.0661    0.1488 C   0  0  0  0  0  0  0  0  0  0  0  0
    2.6291   -0.8816    0.4968 C   0  0  0  0  0  0  0  0  0  0  0  0
    3.1104    0.3902    0.7882 C   0  0  0  0  0  0  0  0  0  0  0  0
    2.2490    1.4795    0.7317 C   0  0  0  0  0  0  0  0  0  0  0  0
    0.9080    1.2942    0.3840 C   0  0  0  0  0  0  0  0  0  0  0  0
   -2.5599   -1.6750   -0.8593 H   0  0  0  0  0  0  0  0  0  0  0  0
   -0.9302   -2.0218   -1.4370 H   0  0  0  0  0  0  0  0  0  0  0  0
   -1.3412   -2.2582    0.2742 H   0  0  0  0  0  0  0  0  0  0  0  0
   -2.4399    0.5522   -1.8728 H   0  0  0  0  0  0  0  0  0  0  0  0
   -1.2400    1.7530   -1.4020 H   0  0  0  0  0  0  0  0  0  0  0  0
   -0.7580    0.3747   -2.3976 H   0  0  0  0  0  0  0  0  0  0  0  0
   -1.8349    1.4108    1.0745 H   0  0  0  0  0  0  0  0  0  0  0  0
   -1.7639   -0.2038    1.7896 H   0  0  0  0  0  0  0  0  0  0  0  0
   -3.0423    0.2058    0.6347 H   0  0  0  0  0  0  0  0  0  0  0  0
    0.9639   -2.0804   -0.0688 H   0  0  0  0  0  0  0  0  0  0  0  0
    3.2982   -1.7373    0.5393 H   0  0  0  0  0  0  0  0  0  0  0  0
    4.1531    0.5312    1.0581 H   0  0  0  0  0  0  0  0  0  0  0  0
    2.6172    2.4766    0.9579 H   0  0  0  0  0  0  0  0  0  0  0  0
    0.2646    2.1707    0.3505 H   0  0  0  0  0  0  0  0  0  0  0  0
  1  2  1  0
  2  3  1  0
  2  4  1  0
  2  5  1  0
  5  6  2  0
  6  7  1  0
  7  8  2  0
  8  9  1  0
  9 10  2  0
 10  5  1  0
  1 11  1  0
  1 12  1  0
  1 13  1  0
  3 14  1  0
  3 15  1  0
  3 16  1  0
  4 17  1  0
  4 18  1  0
  4 19  1  0
  6 20  1  0
  7 21  1  0
  8 22  1  0
  9 23  1  0
 10 24  1  0
M  END
$$$$
