
     RDKit          3D

 22 21  0  0  0  0  0  0  0  0999 V2000
    3.6007   -0.1210   -0.1654 C   0  0  0  0  0  0  0  0  0  0  0  0
    2.2840    0.6377   -0.1175 C   0  0  0  0  0  0  0  0  0  0  0  0
    1.1026   -0.3048    0.1110 C   0  0  0  0  0  0  0  0  0  0  0  0
   -0.2199    0.4623    0.1585 C   0  0  0  0  0  0  0  0  0  0  0  0
   -1.4030   -0.4808    0.3874 C   0  0  0  0  0  0  0  0  0  0  0  0
   -2.7218    0.2891    0.4343 C   0  0  0  0  0  0  0  0  0  0  0  0
   -3.8343   -0.6256    0.6614 N   0  0  0  0  0  0  0  0  0  0  0  0
    3.7819   -0.6521    0.7746 H   0  0  0  0  0  0  0  0  0  0  0  0
    4.4317    0.5720   -0.3296 H   0  0  0  0  0  0  0  0  0  0  0  0
    3.6025   -0.8527   -0.9796 H   0  0  0  0  0  0  0  0  0  0  0  0
    2.3273    1.3824    0.6857 H   0  0  0  0  0  0  0  0  0  0  0  0
    2.1489    1.1829   -1.0589 H   0  0  0  0  0  0  0  0  0  0  0  0
    1.0664   -1.0502   -0.6928 H   0  0  0  0  0  0  0  0  0  0  0  0
    1.2448   -0.8507    1.0517 H   0  0  0  0  0  0  0  0  0  0  0  0
   -0.1835    1.2076    0.9624 H   0  0  0  0  0  0  0  0  0  0  0  0
   -0.3620    1.0080   -0.7823 H   0  0  0  0  0  0  0  0  0  0  0  0
   -1.2584   -1.0268    1.3282 H   0  0  0  0  0  0  0  0  0  0  0  0
   -1.4357   -1.2266   -0.4169 H   0  0  0  0  0  0  0  0  0  0  0  0
   -2.6978    1.0289    1.2416 H   0  0  0  0  0  0  0  0  0  0  0  0
   -2.8805    0.8270   -0.5068 H   0  0  0  0  0  0  0  0  0  0  0  0
   -3.8839   -1.3018   -0.0997 H   0  0  0  0  0  0  0  0  0  0  0  0
   -4.7100   -0.1049    0.6383 H   0  0  0  0  0  0  0  0  0  0  0  0
  1  2  1  0
  2  3  1  0
  3  4  1  0
  4  5  1  0
  5  6  1  0
  6  7  1  0
  1  8  1  0
  1  9  1  0
  1 10  1  0
  2 11  1  0
  2 12  1  0
  3 13  1  0
  3 14  1  0
  4 15  1  0
  4 16  1  0
  5 17  1  0
  5 18  1  0
  6 19  1  0
  6 20  1  0
  7 21  1  0
  7 22  1  0
M  END
$$$$
