
     RDKit          3D

 38 37  0  0  0  0  0  0  0  0999 V2000
   -4.7831   -1.9304   -2.0683 C   0  0  0  0  0  0  0  0  0  0  0  0
   -4.4898   -0.4680   -1.7830 C   0  0  0  0  0  0  0  0  0  0  0  0
   -3.1784   -0.1302   -2.2609 O   0  0  0  0  0  0  0  0  0  0  0  0
   -2.1500   -0.3720   -1.4023 C   0  0  0  0  0  0  0  0  0  0  0  0
   -2.2595   -0.8348   -0.2770 O   0  0  0  0  0  0  0  0  0  0  0  0
   -0.8463    0.0045   -2.0603 C   0  0  0  0  0  0  0  0  0  0  0  0
    0.3288   -0.2531   -1.1184 C   0  0  2  0  0  0  0  0  0  0  0  0
    0.2817    0.7244    0.0468 C   0  0  0  0  0  0  0  0  0  0  0  0
    0.1945    1.9405   -0.0749 O   0  0  0  0  0  0  0  0  0  0  0  0
    0.3623    0.0569    1.2308 O   0  0  0  0  0  0  0  0  0  0  0  0
    0.3094    0.8685    2.4120 C   0  0  0  0  0  0  0  0  0  0  0  0
   -1.1309    1.1836    2.7724 C   0  0  0  0  0  0  0  0  0  0  0  0
    1.8957   -0.0181   -2.0393 S   0  0  0  0  0  0  0  0  0  0  0  0
    3.3885   -0.2650   -0.5722 P   0  0  0  0  0  5  0  0  0  0  0  0
    5.2289   -0.5237   -1.1667 S   0  0  0  0  0  0  0  0  0  0  0  0
    3.2276    0.9523    0.4924 O   0  0  0  0  0  0  0  0  0  0  0  0
    3.5824    2.2635    0.0919 C   0  0  0  0  0  0  0  0  0  0  0  0
    2.8561   -1.4957    0.3480 O   0  0  0  0  0  0  0  0  0  0  0  0
    3.5462   -1.8208    1.5385 C   0  0  0  0  0  0  0  0  0  0  0  0
   -5.8019   -2.1914   -1.7658 H   0  0  0  0  0  0  0  0  0  0  0  0
   -4.0820   -2.5811   -1.5354 H   0  0  0  0  0  0  0  0  0  0  0  0
   -4.6635   -2.1446   -3.1365 H   0  0  0  0  0  0  0  0  0  0  0  0
   -5.2005    0.1647   -2.3258 H   0  0  0  0  0  0  0  0  0  0  0  0
   -4.5986   -0.2354   -0.7167 H   0  0  0  0  0  0  0  0  0  0  0  0
   -0.9050    1.0614   -2.3470 H   0  0  0  0  0  0  0  0  0  0  0  0
   -0.7541   -0.6083   -2.9654 H   0  0  0  0  0  0  0  0  0  0  0  0
    0.3021   -1.2833   -0.7472 H   0  0  0  0  0  0  0  0  0  0  0  0
    0.7713    0.2900    3.2199 H   0  0  0  0  0  0  0  0  0  0  0  0
    0.9033    1.7827    2.2890 H   0  0  0  0  0  0  0  0  0  0  0  0
   -1.1802    1.7647    3.6984 H   0  0  0  0  0  0  0  0  0  0  0  0
   -1.7063    0.2605    2.9018 H   0  0  0  0  0  0  0  0  0  0  0  0
   -1.6225    1.7549    1.9774 H   0  0  0  0  0  0  0  0  0  0  0  0
    3.2863    2.4554   -0.9422 H   0  0  0  0  0  0  0  0  0  0  0  0
    4.6622    2.4014    0.2010 H   0  0  0  0  0  0  0  0  0  0  0  0
    3.0693    2.9771    0.7420 H   0  0  0  0  0  0  0  0  0  0  0  0
    2.8255   -2.1924    2.2702 H   0  0  0  0  0  0  0  0  0  0  0  0
    4.2775   -2.6060    1.3312 H   0  0  0  0  0  0  0  0  0  0  0  0
    4.0529   -0.9526    1.9687 H   0  0  0  0  0  0  0  0  0  0  0  0
  1  2  1  0
  2  3  1  0
  3  4  1  0
  4  5  2  0
  4  6  1  0
  6  7  1  0
  7  8  1  0
  8  9  2  0
  8 10  1  0
 10 11  1  0
 11 12  1  0
  7 13  1  0
 13 14  1  0
 14 15  2  0
 14 16  1  0
 16 17  1  0
 14 18  1  0
 18 19  1  0
  1 20  1  0
  1 21  1  0
  1 22  1  0
  2 23  1  0
  2 24  1  0
  6 25  1  0
  6 26  1  0
  7 27  1  1
 11 28  1  0
 11 29  1  0
 12 30  1  0
 12 31  1  0
 12 32  1  0
 17 33  1  0
 17 34  1  0
 17 35  1  0
 19 36  1  0
 19 37  1  0
 19 38  1  0
M  END
$$$$
