
     RDKit          3D

 16 16  0  0  0  0  0  0  0  0999 V2000
   -2.2915   -0.5647   -0.4730 C   0  0  0  0  0  0  0  0  0  0  0  0
   -0.8848   -0.1215   -0.1878 C   0  0  0  0  0  0  0  0  0  0  0  0
    0.1019   -1.0834    0.0799 C   0  0  0  0  0  0  0  0  0  0  0  0
    1.4120   -0.6949    0.3468 C   0  0  0  0  0  0  0  0  0  0  0  0
    1.7722    0.6471    0.3547 C   0  0  0  0  0  0  0  0  0  0  0  0
    0.8013    1.6138    0.0903 C   0  0  0  0  0  0  0  0  0  0  0  0
   -0.5182    1.2337   -0.1792 C   0  0  0  0  0  0  0  0  0  0  0  0
   -1.6683    2.4830   -0.4980 Cl  0  0  0  0  0  0  0  0  0  0  0  0
    2.3239   -1.6762    0.5991 O   0  0  0  0  0  0  0  0  0  0  0  0
   -2.5971   -0.2446   -1.4743 H   0  0  0  0  0  0  0  0  0  0  0  0
   -2.3838   -1.6555   -0.4354 H   0  0  0  0  0  0  0  0  0  0  0  0
   -2.9803   -0.1520    0.2710 H   0  0  0  0  0  0  0  0  0  0  0  0
   -0.1437   -2.1430    0.0822 H   0  0  0  0  0  0  0  0  0  0  0  0
    2.7911    0.9582    0.5618 H   0  0  0  0  0  0  0  0  0  0  0  0
    1.0773    2.6654    0.0950 H   0  0  0  0  0  0  0  0  0  0  0  0
    3.1880   -1.2655    0.7670 H   0  0  0  0  0  0  0  0  0  0  0  0
  1  2  1  0
  2  3  2  0
  3  4  1  0
  4  5  2  0
  5  6  1  0
  6  7  2  0
  7  8  1  0
  4  9  1  0
  7  2  1  0
  1 10  1  0
  1 11  1  0
  1 12  1  0
  3 13  1  0
  5 14  1  0
  6 15  1  0
  9 16  1  0
M  END
$$$$
