
     RDKit          3D

 35 35  0  0  0  0  0  0  0  0999 V2000
   -4.3269   -2.9875   -1.5941 C   0  0  0  0  0  0  0  0  0  0  0  0
   -3.1294   -2.3658   -0.8928 C   0  0  0  0  0  0  0  0  0  0  0  0
   -3.0633   -0.9523   -1.2173 N   0  0  0  0  0  0  0  0  0  0  0  0
   -2.0492   -0.2555   -0.5688 C   0  0  0  0  0  0  0  0  0  0  0  0
   -0.8798   -0.8359   -0.3345 N   0  0  0  0  0  0  0  0  0  0  0  0
    0.0356   -0.0949    0.2729 C   0  0  0  0  0  0  0  0  0  0  0  0
   -0.1597    1.1556    0.6517 N   0  0  0  0  0  0  0  0  0  0  0  0
   -1.3626    1.6461    0.3782 C   0  0  0  0  0  0  0  0  0  0  0  0
   -2.3419    0.9859   -0.2284 N   0  0  0  0  0  0  0  0  0  0  0  0
   -1.7395    3.3244    0.8414 S   0  0  0  0  0  0  0  0  0  0  0  0
   -0.2087    3.7886    1.6843 C   0  0  0  0  0  0  0  0  0  0  0  0
    1.2367   -0.7392    0.5012 N   0  0  0  0  0  0  0  0  0  0  0  0
    2.5222   -0.0350    0.5063 C   0  0  0  0  0  0  0  0  0  0  0  0
    2.6857    0.8163    1.7732 C   0  0  0  0  0  0  0  0  0  0  0  0
    2.7146    0.8123   -0.7598 C   0  0  0  0  0  0  0  0  0  0  0  0
    3.6172   -1.1231    0.5285 C   0  0  0  0  0  0  0  0  0  0  0  0
   -4.3894   -4.0562   -1.3672 H   0  0  0  0  0  0  0  0  0  0  0  0
   -5.2606   -2.5140   -1.2723 H   0  0  0  0  0  0  0  0  0  0  0  0
   -4.2496   -2.8710   -2.6804 H   0  0  0  0  0  0  0  0  0  0  0  0
   -2.2225   -2.8848   -1.2253 H   0  0  0  0  0  0  0  0  0  0  0  0
   -3.2334   -2.5103    0.1895 H   0  0  0  0  0  0  0  0  0  0  0  0
   -3.9155   -0.4272   -1.0456 H   0  0  0  0  0  0  0  0  0  0  0  0
    0.6423    3.7423    0.9991 H   0  0  0  0  0  0  0  0  0  0  0  0
   -0.3001    4.8172    2.0442 H   0  0  0  0  0  0  0  0  0  0  0  0
   -0.0270    3.1409    2.5465 H   0  0  0  0  0  0  0  0  0  0  0  0
    1.2097   -1.5730   -0.0789 H   0  0  0  0  0  0  0  0  0  0  0  0
    2.4731    0.2299    2.6746 H   0  0  0  0  0  0  0  0  0  0  0  0
    2.0200    1.6829    1.7811 H   0  0  0  0  0  0  0  0  0  0  0  0
    3.7079    1.2028    1.8578 H   0  0  0  0  0  0  0  0  0  0  0  0
    2.5603    0.2129   -1.6645 H   0  0  0  0  0  0  0  0  0  0  0  0
    2.0174    1.6554   -0.8017 H   0  0  0  0  0  0  0  0  0  0  0  0
    3.7269    1.2302   -0.8029 H   0  0  0  0  0  0  0  0  0  0  0  0
    4.6200   -0.6817    0.5485 H   0  0  0  0  0  0  0  0  0  0  0  0
    3.5538   -1.7680   -0.3560 H   0  0  0  0  0  0  0  0  0  0  0  0
    3.5158   -1.7685    1.4092 H   0  0  0  0  0  0  0  0  0  0  0  0
  1  2  1  0
  2  3  1  0
  3  4  1  0
  4  5  2  0
  5  6  1  0
  6  7  2  0
  7  8  1  0
  8  9  2  0
  8 10  1  0
 10 11  1  0
  6 12  1  0
 12 13  1  0
 13 14  1  0
 13 15  1  0
 13 16  1  0
  9  4  1  0
  1 17  1  0
  1 18  1  0
  1 19  1  0
  2 20  1  0
  2 21  1  0
  3 22  1  0
 11 23  1  0
 11 24  1  0
 11 25  1  0
 12 26  1  0
 14 27  1  0
 14 28  1  0
 14 29  1  0
 15 30  1  0
 15 31  1  0
 15 32  1  0
 16 33  1  0
 16 34  1  0
 16 35  1  0
M  END
$$$$
