
     RDKit          3D

 28 27  0  0  0  0  0  0  0  0999 V2000
   -5.0469   -0.3241    0.3712 C   0  0  0  0  0  0  0  0  0  0  0  0
   -3.8116    0.4480   -0.0638 C   0  0  0  0  0  0  0  0  0  0  0  0
   -2.5293   -0.3138    0.2683 C   0  0  0  0  0  0  0  0  0  0  0  0
   -1.2910    0.4647   -0.1700 C   0  0  0  0  0  0  0  0  0  0  0  0
    0.0034   -0.2681    0.1471 C   0  0  0  0  0  0  0  0  0  0  0  0
    0.0174   -1.3677    0.6978 O   0  0  0  0  0  0  0  0  0  0  0  0
    1.2794    0.4510   -0.2629 C   0  0  0  0  0  0  0  0  0  0  0  0
    2.5377   -0.3409    0.0853 C   0  0  0  0  0  0  0  0  0  0  0  0
    3.8007    0.4073   -0.3388 C   0  0  0  0  0  0  0  0  0  0  0  0
    5.0559   -0.3781    0.0062 C   0  0  0  0  0  0  0  0  0  0  0  0
   -5.9524    0.2390    0.1241 H   0  0  0  0  0  0  0  0  0  0  0  0
   -5.0400   -0.4990    1.4518 H   0  0  0  0  0  0  0  0  0  0  0  0
   -5.1015   -1.2938   -0.1338 H   0  0  0  0  0  0  0  0  0  0  0  0
   -3.8042    1.4246    0.4341 H   0  0  0  0  0  0  0  0  0  0  0  0
   -3.8654    0.6341   -1.1428 H   0  0  0  0  0  0  0  0  0  0  0  0
   -2.5433   -1.2937   -0.2252 H   0  0  0  0  0  0  0  0  0  0  0  0
   -2.4823   -0.5052    1.3477 H   0  0  0  0  0  0  0  0  0  0  0  0
   -1.2614    1.4348    0.3385 H   0  0  0  0  0  0  0  0  0  0  0  0
   -1.3231    0.6377   -1.2514 H   0  0  0  0  0  0  0  0  0  0  0  0
    1.2968    1.4211    0.2461 H   0  0  0  0  0  0  0  0  0  0  0  0
    1.2351    0.6241   -1.3439 H   0  0  0  0  0  0  0  0  0  0  0  0
    2.5056   -1.3206   -0.4076 H   0  0  0  0  0  0  0  0  0  0  0  0
    2.5666   -0.5322    1.1653 H   0  0  0  0  0  0  0  0  0  0  0  0
    3.7785    0.5933   -1.4189 H   0  0  0  0  0  0  0  0  0  0  0  0
    3.8396    1.3837    0.1580 H   0  0  0  0  0  0  0  0  0  0  0  0
    5.9471    0.1754   -0.3058 H   0  0  0  0  0  0  0  0  0  0  0  0
    5.0635   -1.3481   -0.5010 H   0  0  0  0  0  0  0  0  0  0  0  0
    5.1250   -0.5533    1.0845 H   0  0  0  0  0  0  0  0  0  0  0  0
  1  2  1  0
  2  3  1  0
  3  4  1  0
  4  5  1  0
  5  6  2  0
  5  7  1  0
  7  8  1  0
  8  9  1  0
  9 10  1  0
  1 11  1  0
  1 12  1  0
  1 13  1  0
  2 14  1  0
  2 15  1  0
  3 16  1  0
  3 17  1  0
  4 18  1  0
  4 19  1  0
  7 20  1  0
  7 21  1  0
  8 22  1  0
  8 23  1  0
  9 24  1  0
  9 25  1  0
 10 26  1  0
 10 27  1  0
 10 28  1  0
M  END
$$$$
