
     RDKit          3D

 34 33  0  0  0  0  0  0  0  0999 V2000
   -3.8737    2.5611   -0.1516 C   0  0  0  0  0  0  0  0  0  0  0  0
   -3.1341    1.5662    0.7286 C   0  0  0  0  0  0  0  0  0  0  0  0
   -2.2629    0.6242   -0.1010 C   0  0  0  0  0  0  0  0  0  0  0  0
   -1.5245   -0.3770    0.7899 C   0  0  0  0  0  0  0  0  0  0  0  0
   -0.6752   -1.2810    0.0047 N   0  0  0  0  0  0  0  0  0  0  0  0
   -1.2922   -2.5205   -0.4632 C   0  0  0  0  0  0  0  0  0  0  0  0
   -1.1250   -3.6489    0.5426 C   0  0  0  0  0  0  0  0  0  0  0  0
    0.6638   -1.0683   -0.3191 C   0  0  0  0  0  0  0  0  0  0  0  0
    1.3401   -1.8810   -0.9410 O   0  0  0  0  0  0  0  0  0  0  0  0
    1.3701    0.4567    0.2035 S   0  0  0  0  0  0  0  0  0  0  0  0
    3.0503    0.2551   -0.4571 C   0  0  0  0  0  0  0  0  0  0  0  0
    3.8897    1.4870   -0.1277 C   0  0  0  0  0  0  0  0  0  0  0  0
    5.3049    1.3467   -0.6697 C   0  0  0  0  0  0  0  0  0  0  0  0
   -4.4905    3.2248    0.4622 H   0  0  0  0  0  0  0  0  0  0  0  0
   -4.5302    2.0459   -0.8600 H   0  0  0  0  0  0  0  0  0  0  0  0
   -3.1716    3.1792   -0.7203 H   0  0  0  0  0  0  0  0  0  0  0  0
   -3.8629    0.9867    1.3072 H   0  0  0  0  0  0  0  0  0  0  0  0
   -2.5117    2.1141    1.4456 H   0  0  0  0  0  0  0  0  0  0  0  0
   -2.8879    0.0845   -0.8231 H   0  0  0  0  0  0  0  0  0  0  0  0
   -1.5446    1.2081   -0.6885 H   0  0  0  0  0  0  0  0  0  0  0  0
   -0.9252    0.1488    1.5391 H   0  0  0  0  0  0  0  0  0  0  0  0
   -2.2442   -0.9847    1.3517 H   0  0  0  0  0  0  0  0  0  0  0  0
   -2.3547   -2.3384   -0.6589 H   0  0  0  0  0  0  0  0  0  0  0  0
   -0.8402   -2.8187   -1.4160 H   0  0  0  0  0  0  0  0  0  0  0  0
   -1.5933   -4.5643    0.1680 H   0  0  0  0  0  0  0  0  0  0  0  0
   -0.0665   -3.8576    0.7294 H   0  0  0  0  0  0  0  0  0  0  0  0
   -1.5886   -3.3954    1.5013 H   0  0  0  0  0  0  0  0  0  0  0  0
    2.9972    0.1182   -1.5425 H   0  0  0  0  0  0  0  0  0  0  0  0
    3.5069   -0.6374   -0.0159 H   0  0  0  0  0  0  0  0  0  0  0  0
    3.4352    2.3864   -0.5608 H   0  0  0  0  0  0  0  0  0  0  0  0
    3.9423    1.6348    0.9579 H   0  0  0  0  0  0  0  0  0  0  0  0
    5.8072    0.4770   -0.2343 H   0  0  0  0  0  0  0  0  0  0  0  0
    5.8938    2.2365   -0.4260 H   0  0  0  0  0  0  0  0  0  0  0  0
    5.2984    1.2312   -1.7582 H   0  0  0  0  0  0  0  0  0  0  0  0
  1  2  1  0
  2  3  1  0
  3  4  1  0
  4  5  1  0
  5  6  1  0
  6  7  1  0
  5  8  1  0
  8  9  2  0
  8 10  1  0
 10 11  1  0
 11 12  1  0
 12 13  1  0
  1 14  1  0
  1 15  1  0
  1 16  1  0
  2 17  1  0
  2 18  1  0
  3 19  1  0
  3 20  1  0
  4 21  1  0
  4 22  1  0
  6 23  1  0
  6 24  1  0
  7 25  1  0
  7 26  1  0
  7 27  1  0
 11 28  1  0
 11 29  1  0
 12 30  1  0
 12 31  1  0
 13 32  1  0
 13 33  1  0
 13 34  1  0
M  END
$$$$
