
     RDKit          3D

 26 29  0  0  0  0  0  0  0  0999 V2000
   -3.4127    0.7826   -0.3015 C   0  0  0  0  0  0  0  0  0  0  0  0
   -3.0039   -0.5503   -0.2741 C   0  0  0  0  0  0  0  0  0  0  0  0
   -1.6455   -0.8789   -0.1542 C   0  0  0  0  0  0  0  0  0  0  0  0
   -1.2158   -2.2125   -0.1249 C   0  0  0  0  0  0  0  0  0  0  0  0
    0.1412   -2.5237   -0.0050 C   0  0  0  0  0  0  0  0  0  0  0  0
    1.1036   -1.5093    0.0887 C   0  0  0  0  0  0  0  0  0  0  0  0
    2.4694   -1.8054    0.2095 C   0  0  0  0  0  0  0  0  0  0  0  0
    3.4127   -0.7826    0.3015 C   0  0  0  0  0  0  0  0  0  0  0  0
    3.0039    0.5503    0.2741 C   0  0  0  0  0  0  0  0  0  0  0  0
    1.6455    0.8789    0.1542 C   0  0  0  0  0  0  0  0  0  0  0  0
    0.6880   -0.1578    0.0608 C   0  0  0  0  0  0  0  0  0  0  0  0
   -0.6880    0.1578   -0.0608 C   0  0  0  0  0  0  0  0  0  0  0  0
   -1.1036    1.5093   -0.0887 C   0  0  0  0  0  0  0  0  0  0  0  0
   -2.4694    1.8054   -0.2095 C   0  0  0  0  0  0  0  0  0  0  0  0
   -0.1412    2.5237    0.0050 C   0  0  0  0  0  0  0  0  0  0  0  0
    1.2158    2.2125    0.1249 C   0  0  0  0  0  0  0  0  0  0  0  0
   -4.4682    1.0246   -0.3948 H   0  0  0  0  0  0  0  0  0  0  0  0
   -3.7554   -1.3331   -0.3472 H   0  0  0  0  0  0  0  0  0  0  0  0
   -1.9361   -3.0245   -0.1954 H   0  0  0  0  0  0  0  0  0  0  0  0
    0.4400   -3.5693    0.0145 H   0  0  0  0  0  0  0  0  0  0  0  0
    2.8089   -2.8385    0.2328 H   0  0  0  0  0  0  0  0  0  0  0  0
    4.4682   -1.0246    0.3948 H   0  0  0  0  0  0  0  0  0  0  0  0
    3.7555    1.3332    0.3472 H   0  0  0  0  0  0  0  0  0  0  0  0
   -2.8090    2.8384   -0.2328 H   0  0  0  0  0  0  0  0  0  0  0  0
   -0.4400    3.5693   -0.0145 H   0  0  0  0  0  0  0  0  0  0  0  0
    1.9361    3.0245    0.1954 H   0  0  0  0  0  0  0  0  0  0  0  0
  1  2  2  0
  2  3  1  0
  3  4  2  0
  4  5  1  0
  5  6  2  0
  6  7  1  0
  7  8  2  0
  8  9  1  0
  9 10  2  0
 10 11  1  0
 11 12  2  0
 12 13  1  0
 13 14  2  0
 13 15  1  0
 15 16  2  0
 14  1  1  0
 12  3  1  0
 11  6  1  0
 16 10  1  0
  1 17  1  0
  2 18  1  0
  4 19  1  0
  5 20  1  0
  7 21  1  0
  8 22  1  0
  9 23  1  0
 14 24  1  0
 15 25  1  0
 16 26  1  0
M  END
$$$$
