
     RDKit          3D

 22 23  0  0  0  0  0  0  0  0999 V2000
   -3.5342    0.1626    0.3988 C   0  0  0  0  0  0  0  0  0  0  0  0
   -2.7977    1.3326    0.2265 C   0  0  0  0  0  0  0  0  0  0  0  0
   -1.4114    1.2695    0.0700 C   0  0  0  0  0  0  0  0  0  0  0  0
   -0.7443    0.0343    0.0840 C   0  0  0  0  0  0  0  0  0  0  0  0
   -1.5008   -1.1355    0.2587 C   0  0  0  0  0  0  0  0  0  0  0  0
   -2.8870   -1.0710    0.4151 C   0  0  0  0  0  0  0  0  0  0  0  0
    0.7175   -0.0330   -0.0810 C   0  0  0  0  0  0  0  0  0  0  0  0
    1.3074   -0.1551   -1.3570 C   0  0  0  0  0  0  0  0  0  0  0  0
    2.6958   -0.2190   -1.5147 C   0  0  0  0  0  0  0  0  0  0  0  0
    3.5196   -0.1620   -0.3972 C   0  0  0  0  0  0  0  0  0  0  0  0
    2.9737   -0.0419    0.8749 C   0  0  0  0  0  0  0  0  0  0  0  0
    1.5850    0.0220    1.0306 C   0  0  0  0  0  0  0  0  0  0  0  0
    0.9853    0.1713    2.6499 Cl  0  0  0  0  0  0  0  0  0  0  0  0
    5.2269   -0.2405   -0.5899 Cl  0  0  0  0  0  0  0  0  0  0  0  0
    0.3516   -0.2328   -2.8008 Cl  0  0  0  0  0  0  0  0  0  0  0  0
   -4.6132    0.2123    0.5206 H   0  0  0  0  0  0  0  0  0  0  0  0
   -3.3020    2.2954    0.2137 H   0  0  0  0  0  0  0  0  0  0  0  0
   -0.8527    2.1934   -0.0635 H   0  0  0  0  0  0  0  0  0  0  0  0
   -1.0125   -2.1075    0.2740 H   0  0  0  0  0  0  0  0  0  0  0  0
   -3.4610   -1.9842    0.5495 H   0  0  0  0  0  0  0  0  0  0  0  0
    3.1298   -0.3130   -2.5073 H   0  0  0  0  0  0  0  0  0  0  0  0
    3.6242    0.0022    1.7452 H   0  0  0  0  0  0  0  0  0  0  0  0
  1  2  2  0
  2  3  1  0
  3  4  2  0
  4  5  1  0
  5  6  2  0
  4  7  1  0
  7  8  2  0
  8  9  1  0
  9 10  2  0
 10 11  1  0
 11 12  2  0
 12 13  1  0
 10 14  1  0
  8 15  1  0
  6  1  1  0
 12  7  1  0
  1 16  1  0
  2 17  1  0
  3 18  1  0
  5 19  1  0
  6 20  1  0
  9 21  1  0
 11 22  1  0
M  END
$$$$
