
     RDKit          3D

  6  5  0  0  0  0  0  0  0  0999 V2000
    0.6521   -0.2098   -0.4631 C   0  0  0  0  0  0  0  0  0  0  0  0
   -0.6746   -0.1082   -0.4090 C   0  0  0  0  0  0  0  0  0  0  0  0
   -1.5695    1.3444   -0.5567 Cl  0  0  0  0  0  0  0  0  0  0  0  0
    1.7423    1.0909   -0.6917 Cl  0  0  0  0  0  0  0  0  0  0  0  0
    1.1717   -1.1541   -0.3639 H   0  0  0  0  0  0  0  0  0  0  0  0
   -1.3220   -0.9632   -0.2623 H   0  0  0  0  0  0  0  0  0  0  0  0
  1  2  2  0
  2  3  1  0
  1  4  1  0
  1  5  1  0
  2  6  1  0
M  END
$$$$
