
     RDKit          3D

  9  8  0  0  0  0  0  0  0  0999 V2000
    0.6540   -0.3104    0.0209 C   0  0  0  0  0  0  0  0  0  0  0  0
   -0.8529   -0.1499   -0.1642 C   0  0  0  0  0  0  0  0  0  0  0  0
   -1.4907   -1.3298   -0.0054 F   0  0  0  0  0  0  0  0  0  0  0  0
   -1.1610    0.3283   -1.3877 F   0  0  0  0  0  0  0  0  0  0  0  0
   -1.3478    0.7132    0.7543 F   0  0  0  0  0  0  0  0  0  0  0  0
    1.3774    0.9292   -0.0031 O   0  0  0  0  0  0  0  0  0  0  0  0
    0.8593   -0.7895    0.9833 H   0  0  0  0  0  0  0  0  0  0  0  0
    1.0628   -0.9495   -0.7672 H   0  0  0  0  0  0  0  0  0  0  0  0
    0.8990    1.5583    0.5691 H   0  0  0  0  0  0  0  0  0  0  0  0
  1  2  1  0
  2  3  1  0
  2  4  1  0
  2  5  1  0
  1  6  1  0
  1  7  1  0
  1  8  1  0
  6  9  1  0
M  END
$$$$
