
     RDKit          3D

 25 24  0  0  0  0  0  0  0  0999 V2000
    4.3141    0.6345   -0.1942 C   0  0  0  0  0  0  0  0  0  0  0  0
    3.0420    0.2014   -0.9052 C   0  0  0  0  0  0  0  0  0  0  0  0
    1.8297    0.2837    0.0180 C   0  0  0  0  0  0  0  0  0  0  0  0
    0.5518   -0.1496   -0.6906 C   0  0  0  0  0  0  0  0  0  0  0  0
   -0.5299   -0.0443    0.2352 O   0  0  0  0  0  0  0  0  0  0  0  0
   -1.7737   -0.4377   -0.3618 C   0  0  0  0  0  0  0  0  0  0  0  0
   -2.8692   -0.2842    0.6971 C   0  0  2  0  0  0  0  0  0  0  0  0
   -4.2342   -0.6800    0.1628 C   0  0  0  0  0  0  0  0  0  0  0  0
   -2.9236    1.0820    1.1181 O   0  0  0  0  0  0  0  0  0  0  0  0
    4.5169   -0.0046    0.6712 H   0  0  0  0  0  0  0  0  0  0  0  0
    5.1696    0.5678   -0.8736 H   0  0  0  0  0  0  0  0  0  0  0  0
    4.2362    1.6696    0.1535 H   0  0  0  0  0  0  0  0  0  0  0  0
    3.1648   -0.8257   -1.2681 H   0  0  0  0  0  0  0  0  0  0  0  0
    2.8858    0.8392   -1.7829 H   0  0  0  0  0  0  0  0  0  0  0  0
    1.7070    1.3073    0.3937 H   0  0  0  0  0  0  0  0  0  0  0  0
    1.9839   -0.3443    0.9044 H   0  0  0  0  0  0  0  0  0  0  0  0
    0.3585    0.4974   -1.5539 H   0  0  0  0  0  0  0  0  0  0  0  0
    0.6403   -1.1871   -1.0327 H   0  0  0  0  0  0  0  0  0  0  0  0
   -1.7082   -1.4772   -0.7014 H   0  0  0  0  0  0  0  0  0  0  0  0
   -1.9747    0.2196   -1.2158 H   0  0  0  0  0  0  0  0  0  0  0  0
   -2.6223   -0.8813    1.5819 H   0  0  0  0  0  0  0  0  0  0  0  0
   -4.2483   -1.7264   -0.1565 H   0  0  0  0  0  0  0  0  0  0  0  0
   -5.0010   -0.5389    0.9322 H   0  0  0  0  0  0  0  0  0  0  0  0
   -4.5217   -0.0494   -0.6857 H   0  0  0  0  0  0  0  0  0  0  0  0
   -1.9937    1.3283    1.2932 H   0  0  0  0  0  0  0  0  0  0  0  0
  1  2  1  0
  2  3  1  0
  3  4  1  0
  4  5  1  0
  5  6  1  0
  6  7  1  0
  7  8  1  0
  7  9  1  0
  1 10  1  0
  1 11  1  0
  1 12  1  0
  2 13  1  0
  2 14  1  0
  3 15  1  0
  3 16  1  0
  4 17  1  0
  4 18  1  0
  6 19  1  0
  6 20  1  0
  7 21  1  1
  8 22  1  0
  8 23  1  0
  8 24  1  0
  9 25  1  0
M  END
$$$$
