
     RDKit          3D

 14 13  0  0  0  0  0  0  0  0999 V2000
   -1.9693    0.2025   -0.1169 C   0  0  0  0  0  0  0  0  0  0  0  0
   -0.6490   -0.4574    0.2477 C   0  0  0  0  0  0  0  0  0  0  0  0
    0.5433    0.3846   -0.2083 C   0  0  0  0  0  0  0  0  0  0  0  0
    1.8654   -0.2862    0.1623 C   0  0  0  0  0  0  0  0  0  0  0  0
    3.5217    0.9027   -0.4817 I   0  0  0  0  0  0  0  0  0  0  0  0
   -2.0561    0.3342   -1.2002 H   0  0  0  0  0  0  0  0  0  0  0  0
   -2.0611    1.1848    0.3574 H   0  0  0  0  0  0  0  0  0  0  0  0
   -2.8076   -0.4163    0.2183 H   0  0  0  0  0  0  0  0  0  0  0  0
   -0.6081   -0.6038    1.3334 H   0  0  0  0  0  0  0  0  0  0  0  0
   -0.6031   -1.4498   -0.2158 H   0  0  0  0  0  0  0  0  0  0  0  0
    0.4844    1.3784    0.2532 H   0  0  0  0  0  0  0  0  0  0  0  0
    0.4894    0.5334   -1.2941 H   0  0  0  0  0  0  0  0  0  0  0  0
    1.9276   -1.2766   -0.3023 H   0  0  0  0  0  0  0  0  0  0  0  0
    1.9226   -0.4305    1.2470 H   0  0  0  0  0  0  0  0  0  0  0  0
  1  2  1  0
  2  3  1  0
  3  4  1  0
  4  5  1  0
  1  6  1  0
  1  7  1  0
  1  8  1  0
  2  9  1  0
  2 10  1  0
  3 11  1  0
  3 12  1  0
  4 13  1  0
  4 14  1  0
M  END
$$$$
