
     RDKit          3D

 24 24  0  0  0  0  0  0  0  0999 V2000
   -1.4585    1.9139    0.0198 C   0  0  0  0  0  0  0  0  0  0  0  0
   -0.3893    0.9401    0.5171 C   0  0  2  0  0  0  0  0  0  0  0  0
    0.9063    1.1044   -0.2928 C   0  0  0  0  0  0  0  0  0  0  0  0
    2.0042    0.1648    0.1992 C   0  0  0  0  0  0  0  0  0  0  0  0
    1.5430   -1.2880    0.2304 C   0  0  0  0  0  0  0  0  0  0  0  0
    0.2541   -1.4518    1.0328 C   0  0  0  0  0  0  0  0  0  0  0  0
   -0.8770   -0.5293    0.5448 C   0  0  2  0  0  0  0  0  0  0  0  0
   -1.4424   -1.0216   -0.7931 C   0  0  0  0  0  0  0  0  0  0  0  0
   -1.6672    1.7811   -1.0466 H   0  0  0  0  0  0  0  0  0  0  0  0
   -1.1292    2.9488    0.1633 H   0  0  0  0  0  0  0  0  0  0  0  0
   -2.3936    1.7823    0.5738 H   0  0  0  0  0  0  0  0  0  0  0  0
   -0.1634    1.2222    1.5556 H   0  0  0  0  0  0  0  0  0  0  0  0
    1.2629    2.1388   -0.2164 H   0  0  0  0  0  0  0  0  0  0  0  0
    0.7171    0.9183   -1.3569 H   0  0  0  0  0  0  0  0  0  0  0  0
    2.8854    0.2583   -0.4455 H   0  0  0  0  0  0  0  0  0  0  0  0
    2.3149    0.4680    1.2068 H   0  0  0  0  0  0  0  0  0  0  0  0
    2.3294   -1.9111    0.6717 H   0  0  0  0  0  0  0  0  0  0  0  0
    1.3949   -1.6494   -0.7939 H   0  0  0  0  0  0  0  0  0  0  0  0
   -0.0683   -2.4993    1.0003 H   0  0  0  0  0  0  0  0  0  0  0  0
    0.4642   -1.2258    2.0865 H   0  0  0  0  0  0  0  0  0  0  0  0
   -1.6936   -0.6000    1.2763 H   0  0  0  0  0  0  0  0  0  0  0  0
   -1.7215   -2.0789   -0.7268 H   0  0  0  0  0  0  0  0  0  0  0  0
   -2.3474   -0.4692   -1.0647 H   0  0  0  0  0  0  0  0  0  0  0  0
   -0.7251   -0.9167   -1.6120 H   0  0  0  0  0  0  0  0  0  0  0  0
  1  2  1  0
  2  3  1  0
  3  4  1  0
  4  5  1  0
  5  6  1  0
  6  7  1  0
  7  8  1  0
  7  2  1  0
  1  9  1  0
  1 10  1  0
  1 11  1  0
  2 12  1  1
  3 13  1  0
  3 14  1  0
  4 15  1  0
  4 16  1  0
  5 17  1  0
  5 18  1  0
  6 19  1  0
  6 20  1  0
  7 21  1  1
  8 22  1  0
  8 23  1  0
  8 24  1  0
M  END
$$$$
