
     RDKit          3D

 11 10  0  0  0  0  0  0  0  0999 V2000
    1.2754   -0.1725    0.1228 C   0  0  0  0  0  0  0  0  0  0  0  0
   -0.0331    0.3590   -0.4543 C   0  0  0  0  0  0  0  0  0  0  0  0
   -1.2354   -0.3390    0.1744 C   0  0  0  0  0  0  0  0  0  0  0  0
   -0.1671    2.4859   -0.1132 I   0  0  0  0  0  0  0  0  0  0  0  0
    1.3378   -0.0103    1.2048 H   0  0  0  0  0  0  0  0  0  0  0  0
    1.3670   -1.2487   -0.0596 H   0  0  0  0  0  0  0  0  0  0  0  0
    2.1399    0.3165   -0.3396 H   0  0  0  0  0  0  0  0  0  0  0  0
   -0.0435    0.1804   -1.5357 H   0  0  0  0  0  0  0  0  0  0  0  0
   -1.1916   -1.4183   -0.0071 H   0  0  0  0  0  0  0  0  0  0  0  0
   -1.2744   -0.1834    1.2585 H   0  0  0  0  0  0  0  0  0  0  0  0
   -2.1750    0.0304   -0.2510 H   0  0  0  0  0  0  0  0  0  0  0  0
  1  2  1  0
  2  3  1  0
  2  4  1  0
  1  5  1  0
  1  6  1  0
  1  7  1  0
  2  8  1  0
  3  9  1  0
  3 10  1  0
  3 11  1  0
M  END
$$$$
