
     RDKit          3D

 17 17  0  0  0  0  0  0  0  0999 V2000
    2.6434   -0.0927   -0.3397 C   0  0  0  0  0  0  0  0  0  0  0  0
    1.5585    0.8138   -0.1796 O   0  0  0  0  0  0  0  0  0  0  0  0
    0.3133    0.2580   -0.0339 C   0  0  0  0  0  0  0  0  0  0  0  0
    0.0131   -1.1042   -0.0279 C   0  0  0  0  0  0  0  0  0  0  0  0
   -1.3120   -1.5278    0.1312 C   0  0  0  0  0  0  0  0  0  0  0  0
   -2.3400   -0.5954    0.2846 C   0  0  0  0  0  0  0  0  0  0  0  0
   -2.0487    0.7665    0.2798 C   0  0  0  0  0  0  0  0  0  0  0  0
   -0.7310    1.1780    0.1213 C   0  0  0  0  0  0  0  0  0  0  0  0
   -0.4696    2.5219    0.1199 O   0  0  0  0  0  0  0  0  0  0  0  0
    3.5590    0.4977   -0.4426 H   0  0  0  0  0  0  0  0  0  0  0  0
    2.5280   -0.6895   -1.2505 H   0  0  0  0  0  0  0  0  0  0  0  0
    2.7569   -0.7321    0.5419 H   0  0  0  0  0  0  0  0  0  0  0  0
    0.7800   -1.8622   -0.1439 H   0  0  0  0  0  0  0  0  0  0  0  0
   -1.5432   -2.5905    0.1355 H   0  0  0  0  0  0  0  0  0  0  0  0
   -3.3666   -0.9302    0.4078 H   0  0  0  0  0  0  0  0  0  0  0  0
   -2.8385    1.5019    0.3981 H   0  0  0  0  0  0  0  0  0  0  0  0
    0.4975    2.5868   -0.0020 H   0  0  0  0  0  0  0  0  0  0  0  0
  1  2  1  0
  2  3  1  0
  3  4  2  0
  4  5  1  0
  5  6  2  0
  6  7  1  0
  7  8  2  0
  8  9  1  0
  8  3  1  0
  1 10  1  0
  1 11  1  0
  1 12  1  0
  4 13  1  0
  5 14  1  0
  6 15  1  0
  7 16  1  0
  9 17  1  0
M  END
$$$$
