
     RDKit          3D

 23 22  0  0  0  0  0  0  0  0999 V2000
   -3.9484    0.3084   -0.1553 C   0  0  0  0  0  0  0  0  0  0  0  0
   -2.5414    0.7821    0.1726 C   0  0  0  0  0  0  0  0  0  0  0  0
   -1.4990   -0.2839   -0.1641 C   0  0  0  0  0  0  0  0  0  0  0  0
   -0.0846    0.1965    0.1670 C   0  0  0  0  0  0  0  0  0  0  0  0
    0.9576   -0.8717   -0.1700 C   0  0  0  0  0  0  0  0  0  0  0  0
    2.3459   -0.4047    0.1672 C   0  0  0  0  0  0  0  0  0  0  0  0
    3.3137   -0.2531   -0.7478 C   0  0  0  0  0  0  0  0  0  0  0  0
    4.6602    0.2045   -0.3509 C   0  0  0  0  0  0  0  0  0  0  0  0
    5.5530    0.3473   -1.1768 O   0  0  0  0  0  0  0  0  0  0  0  0
   -4.2026   -0.5907    0.4152 H   0  0  0  0  0  0  0  0  0  0  0  0
   -4.6776    1.0858    0.0932 H   0  0  0  0  0  0  0  0  0  0  0  0
   -4.0467    0.0787   -1.2211 H   0  0  0  0  0  0  0  0  0  0  0  0
   -2.3309    1.6995   -0.3892 H   0  0  0  0  0  0  0  0  0  0  0  0
   -2.4860    1.0339    1.2380 H   0  0  0  0  0  0  0  0  0  0  0  0
   -1.7164   -1.2007    0.3973 H   0  0  0  0  0  0  0  0  0  0  0  0
   -1.5616   -0.5351   -1.2300 H   0  0  0  0  0  0  0  0  0  0  0  0
    0.1312    1.1146   -0.3942 H   0  0  0  0  0  0  0  0  0  0  0  0
   -0.0250    0.4511    1.2329 H   0  0  0  0  0  0  0  0  0  0  0  0
    0.7516   -1.7855    0.4001 H   0  0  0  0  0  0  0  0  0  0  0  0
    0.8848   -1.1362   -1.2321 H   0  0  0  0  0  0  0  0  0  0  0  0
    2.5408   -0.1979    1.2178 H   0  0  0  0  0  0  0  0  0  0  0  0
    3.1685   -0.4506   -1.8036 H   0  0  0  0  0  0  0  0  0  0  0  0
    4.8129    0.4078    0.7219 H   0  0  0  0  0  0  0  0  0  0  0  0
  1  2  1  0
  2  3  1  0
  3  4  1  0
  4  5  1  0
  5  6  1  0
  6  7  2  0
  7  8  1  0
  8  9  2  0
  1 10  1  0
  1 11  1  0
  1 12  1  0
  2 13  1  0
  2 14  1  0
  3 15  1  0
  3 16  1  0
  4 17  1  0
  4 18  1  0
  5 19  1  0
  5 20  1  0
  6 21  1  0
  7 22  1  0
  8 23  1  0
M  END
$$$$
