
     RDKit          3D

 29 28  0  0  0  0  0  0  0  0999 V2000
   -5.2453    0.2894    0.0978 C   0  0  0  0  0  0  0  0  0  0  0  0
   -3.9542   -0.3839    0.5350 C   0  0  0  0  0  0  0  0  0  0  0  0
   -2.7289    0.3349   -0.0291 C   0  0  0  0  0  0  0  0  0  0  0  0
   -1.4323   -0.3455    0.4131 C   0  0  0  0  0  0  0  0  0  0  0  0
   -0.2060    0.3737   -0.1514 C   0  0  0  0  0  0  0  0  0  0  0  0
    1.0902   -0.3064    0.2906 C   0  0  0  0  0  0  0  0  0  0  0  0
    2.3152    0.4115   -0.2729 C   0  0  0  0  0  0  0  0  0  0  0  0
    3.6042   -0.2499    0.1558 C   0  0  0  0  0  0  0  0  0  0  0  0
    3.6938   -1.2404    0.8668 O   0  0  0  0  0  0  0  0  0  0  0  0
    4.6597    0.4317   -0.3751 O   0  0  0  0  0  0  0  0  0  0  0  0
    5.9340   -0.1129   -0.0300 C   0  0  0  0  0  0  0  0  0  0  0  0
   -5.2844    1.3266    0.4458 H   0  0  0  0  0  0  0  0  0  0  0  0
   -6.1085   -0.2407    0.5123 H   0  0  0  0  0  0  0  0  0  0  0  0
   -5.3381    0.2890   -0.9930 H   0  0  0  0  0  0  0  0  0  0  0  0
   -3.9613   -1.4274    0.1993 H   0  0  0  0  0  0  0  0  0  0  0  0
   -3.9078   -0.3955    1.6302 H   0  0  0  0  0  0  0  0  0  0  0  0
   -2.7823    0.3474   -1.1246 H   0  0  0  0  0  0  0  0  0  0  0  0
   -2.7288    1.3792    0.3063 H   0  0  0  0  0  0  0  0  0  0  0  0
   -1.3790   -0.3578    1.5085 H   0  0  0  0  0  0  0  0  0  0  0  0
   -1.4325   -1.3897    0.0775 H   0  0  0  0  0  0  0  0  0  0  0  0
   -0.2058    1.4179    0.1842 H   0  0  0  0  0  0  0  0  0  0  0  0
   -0.2593    0.3860   -1.2469 H   0  0  0  0  0  0  0  0  0  0  0  0
    1.0906   -1.3524   -0.0408 H   0  0  0  0  0  0  0  0  0  0  0  0
    1.1440   -0.3232    1.3864 H   0  0  0  0  0  0  0  0  0  0  0  0
    2.3303    1.4491    0.0790 H   0  0  0  0  0  0  0  0  0  0  0  0
    2.2762    0.4056   -1.3680 H   0  0  0  0  0  0  0  0  0  0  0  0
    6.0832   -0.0826    1.0539 H   0  0  0  0  0  0  0  0  0  0  0  0
    6.0285   -1.1361   -0.4070 H   0  0  0  0  0  0  0  0  0  0  0  0
    6.7045    0.5024   -0.5026 H   0  0  0  0  0  0  0  0  0  0  0  0
  1  2  1  0
  2  3  1  0
  3  4  1  0
  4  5  1  0
  5  6  1  0
  6  7  1  0
  7  8  1  0
  8  9  2  0
  8 10  1  0
 10 11  1  0
  1 12  1  0
  1 13  1  0
  1 14  1  0
  2 15  1  0
  2 16  1  0
  3 17  1  0
  3 18  1  0
  4 19  1  0
  4 20  1  0
  5 21  1  0
  5 22  1  0
  6 23  1  0
  6 24  1  0
  7 25  1  0
  7 26  1  0
 11 27  1  0
 11 28  1  0
 11 29  1  0
M  END
$$$$
