
     RDKit          3D

  6  5  0  0  0  0  0  0  0  0999 V2000
   -0.6751   -0.0564   -0.2453 N   0  0  0  0  0  0  0  0  0  0  0  0
    0.6751    0.0564    0.2453 N   0  0  0  0  0  0  0  0  0  0  0  0
   -1.2700    0.6835    0.1439 H   0  0  0  0  0  0  0  0  0  0  0  0
   -1.1109   -0.9279    0.0763 H   0  0  0  0  0  0  0  0  0  0  0  0
    1.2700   -0.6835   -0.1439 H   0  0  0  0  0  0  0  0  0  0  0  0
    1.1109    0.9279   -0.0763 H   0  0  0  0  0  0  0  0  0  0  0  0
  1  2  1  0
  1  3  1  0
  1  4  1  0
  2  5  1  0
  2  6  1  0
M  END
$$$$
