
     RDKit          3D

 21 20  0  0  0  0  0  0  0  0999 V2000
   -3.4699    0.2014    0.3986 C   0  0  0  0  0  0  0  0  0  0  0  0
   -2.1927   -0.1102   -0.3651 C   0  0  0  0  0  0  0  0  0  0  0  0
   -0.9521    0.1455    0.4903 C   0  0  0  0  0  0  0  0  0  0  0  0
    0.3300   -0.1690   -0.2811 C   0  0  0  0  0  0  0  0  0  0  0  0
    1.5699    0.0864    0.5729 C   0  0  0  0  0  0  0  0  0  0  0  0
    2.8506   -0.2196   -0.1737 C   0  0  0  0  0  0  0  0  0  0  0  0
    2.9123   -0.6244   -1.3272 O   0  0  0  0  0  0  0  0  0  0  0  0
    3.9846    0.0011    0.5530 N   0  0  0  0  0  0  0  0  0  0  0  0
   -3.5542   -0.4233    1.2936 H   0  0  0  0  0  0  0  0  0  0  0  0
   -3.4957    1.2511    0.7081 H   0  0  0  0  0  0  0  0  0  0  0  0
   -4.3443    0.0115   -0.2318 H   0  0  0  0  0  0  0  0  0  0  0  0
   -2.2132   -1.1577   -0.6877 H   0  0  0  0  0  0  0  0  0  0  0  0
   -2.1551    0.5074   -1.2700 H   0  0  0  0  0  0  0  0  0  0  0  0
   -0.9386    1.1935    0.8138 H   0  0  0  0  0  0  0  0  0  0  0  0
   -0.9968   -0.4716    1.3960 H   0  0  0  0  0  0  0  0  0  0  0  0
    0.3749    0.4449   -1.1894 H   0  0  0  0  0  0  0  0  0  0  0  0
    0.3170   -1.2161   -0.6087 H   0  0  0  0  0  0  0  0  0  0  0  0
    1.5986    1.1365    0.8865 H   0  0  0  0  0  0  0  0  0  0  0  0
    1.5397   -0.5398    1.4723 H   0  0  0  0  0  0  0  0  0  0  0  0
    3.9690    0.1931    1.5444 H   0  0  0  0  0  0  0  0  0  0  0  0
    4.8661   -0.2407    0.1192 H   0  0  0  0  0  0  0  0  0  0  0  0
  1  2  1  0
  2  3  1  0
  3  4  1  0
  4  5  1  0
  5  6  1  0
  6  7  2  0
  6  8  1  0
  1  9  1  0
  1 10  1  0
  1 11  1  0
  2 12  1  0
  2 13  1  0
  3 14  1  0
  3 15  1  0
  4 16  1  0
  4 17  1  0
  5 18  1  0
  5 19  1  0
  8 20  1  0
  8 21  1  0
M  END
$$$$
