
     RDKit          3D

 16 16  0  0  0  0  0  0  0  0999 V2000
    2.1948   -0.2711    0.1215 C   0  0  0  0  0  0  0  0  0  0  0  0
    1.4244   -1.1608   -0.6251 C   0  0  0  0  0  0  0  0  0  0  0  0
    0.0552   -0.9394   -0.7808 C   0  0  0  0  0  0  0  0  0  0  0  0
   -0.5534    0.1803   -0.1975 C   0  0  0  0  0  0  0  0  0  0  0  0
    0.2281    1.0618    0.5619 C   0  0  0  0  0  0  0  0  0  0  0  0
    1.5971    0.8385    0.7164 C   0  0  0  0  0  0  0  0  0  0  0  0
   -2.0353    0.4013   -0.3361 C   0  0  0  0  0  0  0  0  0  0  0  0
   -2.7390   -0.2442    0.7165 O   0  0  0  0  0  0  0  0  0  0  0  0
    3.2610   -0.4444    0.2425 H   0  0  0  0  0  0  0  0  0  0  0  0
    1.8899   -2.0290   -1.0846 H   0  0  0  0  0  0  0  0  0  0  0  0
   -0.5362   -1.6462   -1.3594 H   0  0  0  0  0  0  0  0  0  0  0  0
   -0.2275    1.9275    1.0384 H   0  0  0  0  0  0  0  0  0  0  0  0
    2.1973    1.5294    1.3031 H   0  0  0  0  0  0  0  0  0  0  0  0
   -2.3997    0.0091   -1.2914 H   0  0  0  0  0  0  0  0  0  0  0  0
   -2.2735    1.4699   -0.3112 H   0  0  0  0  0  0  0  0  0  0  0  0
   -2.0833   -0.6828    1.2858 H   0  0  0  0  0  0  0  0  0  0  0  0
  1  2  2  0
  2  3  1  0
  3  4  2  0
  4  5  1  0
  5  6  2  0
  4  7  1  0
  7  8  1  0
  6  1  1  0
  1  9  1  0
  2 10  1  0
  3 11  1  0
  5 12  1  0
  6 13  1  0
  7 14  1  0
  7 15  1  0
  8 16  1  0
M  END
$$$$
