
     RDKit          3D

 16 16  0  0  0  0  0  0  0  0999 V2000
    0.1041   -1.1939    0.3259 C   0  0  0  0  0  0  0  0  0  0  0  0
   -1.1689   -0.6475   -0.3117 C   0  0  0  0  0  0  0  0  0  0  0  0
   -1.2820    0.8550   -0.0879 C   0  0  0  0  0  0  0  0  0  0  0  0
   -0.1204    1.5279   -0.5735 O   0  0  0  0  0  0  0  0  0  0  0  0
    1.0653    1.1120    0.1042 C   0  0  0  0  0  0  0  0  0  0  0  0
    1.3153   -0.3754   -0.1084 C   0  0  0  0  0  0  0  0  0  0  0  0
    0.2417   -2.2457    0.0525 H   0  0  0  0  0  0  0  0  0  0  0  0
    0.0103   -1.1537    1.4181 H   0  0  0  0  0  0  0  0  0  0  0  0
   -2.0479   -1.1607    0.0919 H   0  0  0  0  0  0  0  0  0  0  0  0
   -1.1333   -0.8477   -1.3897 H   0  0  0  0  0  0  0  0  0  0  0  0
   -2.1470    1.2483   -0.6313 H   0  0  0  0  0  0  0  0  0  0  0  0
   -1.4227    1.0905    0.9736 H   0  0  0  0  0  0  0  0  0  0  0  0
    1.9013    1.6916   -0.2999 H   0  0  0  0  0  0  0  0  0  0  0  0
    0.9795    1.3536    1.1702 H   0  0  0  0  0  0  0  0  0  0  0  0
    2.2075   -0.6947    0.4403 H   0  0  0  0  0  0  0  0  0  0  0  0
    1.4973   -0.5596   -1.1743 H   0  0  0  0  0  0  0  0  0  0  0  0
  1  2  1  0
  2  3  1  0
  3  4  1  0
  4  5  1  0
  5  6  1  0
  6  1  1  0
  1  7  1  0
  1  8  1  0
  2  9  1  0
  2 10  1  0
  3 11  1  0
  3 12  1  0
  5 13  1  0
  5 14  1  0
  6 15  1  0
  6 16  1  0
M  END
$$$$
