
     RDKit          3D

 22 23  0  0  0  0  0  0  0  0999 V2000
   -1.3453   -0.2790   -1.3196 C   0  0  0  0  0  0  0  0  0  0  0  0
   -2.7314   -0.4342   -1.4131 C   0  0  0  0  0  0  0  0  0  0  0  0
   -3.5245   -0.3810   -0.2645 C   0  0  0  0  0  0  0  0  0  0  0  0
   -2.9256   -0.1719    0.9814 C   0  0  0  0  0  0  0  0  0  0  0  0
   -1.5370   -0.0166    1.0723 C   0  0  0  0  0  0  0  0  0  0  0  0
   -0.7314   -0.0655   -0.0765 C   0  0  0  0  0  0  0  0  0  0  0  0
    0.7268    0.0942    0.0235 C   0  0  0  0  0  0  0  0  0  0  0  0
    1.5068   -1.0419    0.2917 C   0  0  0  0  0  0  0  0  0  0  0  0
    2.8975   -0.9556    0.3971 C   0  0  0  0  0  0  0  0  0  0  0  0
    3.5454    0.2764    0.2362 C   0  0  0  0  0  0  0  0  0  0  0  0
    2.7828    1.4283   -0.0321 C   0  0  0  0  0  0  0  0  0  0  0  0
    1.3787    1.3362   -0.1374 C   0  0  0  0  0  0  0  0  0  0  0  0
    0.4213    2.7548   -0.4639 Cl  0  0  0  0  0  0  0  0  0  0  0  0
    3.5717    2.9682   -0.2350 Cl  0  0  0  0  0  0  0  0  0  0  0  0
    5.2767    0.3672    0.3691 Cl  0  0  0  0  0  0  0  0  0  0  0  0
    3.7502   -2.4242    0.7285 Cl  0  0  0  0  0  0  0  0  0  0  0  0
   -3.8376   -0.0977    2.4472 Cl  0  0  0  0  0  0  0  0  0  0  0  0
   -5.2291   -0.5834   -0.4533 Cl  0  0  0  0  0  0  0  0  0  0  0  0
   -0.7479   -0.3202   -2.2293 H   0  0  0  0  0  0  0  0  0  0  0  0
   -3.1869   -0.5944   -2.3880 H   0  0  0  0  0  0  0  0  0  0  0  0
   -1.0811    0.1499    2.0470 H   0  0  0  0  0  0  0  0  0  0  0  0
    1.0201   -2.0095    0.4187 H   0  0  0  0  0  0  0  0  0  0  0  0
  1  2  2  0
  2  3  1  0
  3  4  2  0
  4  5  1  0
  5  6  2  0
  6  7  1  0
  7  8  2  0
  8  9  1  0
  9 10  2  0
 10 11  1  0
 11 12  2  0
 12 13  1  0
 11 14  1  0
 10 15  1  0
  9 16  1  0
  4 17  1  0
  3 18  1  0
  6  1  1  0
 12  7  1  0
  1 19  1  0
  2 20  1  0
  5 21  1  0
  8 22  1  0
M  END
$$$$
