
     RDKit          3D

 25 24  0  0  0  0  0  0  0  0999 V2000
   -4.2583    0.2280    0.6973 C   0  0  0  0  0  0  0  0  0  0  0  0
   -3.0528   -0.1687   -0.1400 C   0  0  0  0  0  0  0  0  0  0  0  0
   -1.7452    0.2740    0.5160 C   0  0  0  0  0  0  0  0  0  0  0  0
   -0.5351   -0.1268   -0.3292 C   0  0  0  0  0  0  0  0  0  0  0  0
    0.7732    0.3160    0.3269 C   0  0  0  0  0  0  0  0  0  0  0  0
    1.9814   -0.0841   -0.5168 C   0  0  0  0  0  0  0  0  0  0  0  0
    3.2967    0.3430    0.1105 C   0  0  0  0  0  0  0  0  0  0  0  0
    3.3617    0.9445    1.1814 O   0  0  0  0  0  0  0  0  0  0  0  0
    4.5436   -0.0124   -0.6572 C   0  0  0  0  0  0  0  0  0  0  0  0
   -4.2162   -0.2336    1.6890 H   0  0  0  0  0  0  0  0  0  0  0  0
   -5.1823   -0.0983    0.2097 H   0  0  0  0  0  0  0  0  0  0  0  0
   -4.3068    1.3141    0.8252 H   0  0  0  0  0  0  0  0  0  0  0  0
   -3.0517   -1.2564   -0.2760 H   0  0  0  0  0  0  0  0  0  0  0  0
   -3.1419    0.2827   -1.1350 H   0  0  0  0  0  0  0  0  0  0  0  0
   -1.6630   -0.1769    1.5125 H   0  0  0  0  0  0  0  0  0  0  0  0
   -1.7531    1.3622    0.6536 H   0  0  0  0  0  0  0  0  0  0  0  0
   -0.6173    0.3243   -1.3256 H   0  0  0  0  0  0  0  0  0  0  0  0
   -0.5272   -1.2150   -0.4665 H   0  0  0  0  0  0  0  0  0  0  0  0
    0.8558   -0.1314    1.3253 H   0  0  0  0  0  0  0  0  0  0  0  0
    0.7659    1.4040    0.4684 H   0  0  0  0  0  0  0  0  0  0  0  0
    1.9149    0.3795   -1.5073 H   0  0  0  0  0  0  0  0  0  0  0  0
    2.0058   -1.1724   -0.6412 H   0  0  0  0  0  0  0  0  0  0  0  0
    4.6093   -1.0976   -0.7669 H   0  0  0  0  0  0  0  0  0  0  0  0
    5.4246    0.3419   -0.1148 H   0  0  0  0  0  0  0  0  0  0  0  0
    4.5177    0.4658   -1.6394 H   0  0  0  0  0  0  0  0  0  0  0  0
  1  2  1  0
  2  3  1  0
  3  4  1  0
  4  5  1  0
  5  6  1  0
  6  7  1  0
  7  8  2  0
  7  9  1  0
  1 10  1  0
  1 11  1  0
  1 12  1  0
  2 13  1  0
  2 14  1  0
  3 15  1  0
  3 16  1  0
  4 17  1  0
  4 18  1  0
  5 19  1  0
  5 20  1  0
  6 21  1  0
  6 22  1  0
  9 23  1  0
  9 24  1  0
  9 25  1  0
M  END
$$$$
