
     RDKit          3D

 20 19  0  0  0  0  0  0  0  0999 V2000
   -1.4401    1.8801   -0.4382 C   0  0  0  0  0  0  0  0  0  0  0  0
   -0.0854    1.4592   -0.4721 O   0  0  0  0  0  0  0  0  0  0  0  0
    0.1025    0.0375   -0.2699 C   0  0  0  0  0  0  0  0  0  0  0  0
   -0.6429   -0.8090   -1.3952 C   0  0  0  0  0  0  0  0  0  0  0  0
   -0.4271   -0.3122   -2.6391 F   0  0  0  0  0  0  0  0  0  0  0  0
   -1.9891   -0.8244   -1.2045 F   0  0  0  0  0  0  0  0  0  0  0  0
   -0.2427   -2.1072   -1.4126 F   0  0  0  0  0  0  0  0  0  0  0  0
    1.5219   -0.2337   -0.3857 O   0  0  0  0  0  0  0  0  0  0  0  0
    2.3198    0.5679    0.4738 C   0  0  0  0  0  0  0  0  0  0  0  0
   -0.3371   -0.2826    1.0699 O   0  0  0  0  0  0  0  0  0  0  0  0
   -0.2712   -1.6637    1.3927 C   0  0  0  0  0  0  0  0  0  0  0  0
   -1.4521    2.9736   -0.4144 H   0  0  0  0  0  0  0  0  0  0  0  0
   -1.9662    1.5635   -1.3424 H   0  0  0  0  0  0  0  0  0  0  0  0
   -1.9569    1.5146    0.4535 H   0  0  0  0  0  0  0  0  0  0  0  0
    2.2783    1.6208    0.1804 H   0  0  0  0  0  0  0  0  0  0  0  0
    2.0228    0.4530    1.5201 H   0  0  0  0  0  0  0  0  0  0  0  0
    3.3570    0.2344    0.3775 H   0  0  0  0  0  0  0  0  0  0  0  0
   -1.0597   -2.2181    0.8771 H   0  0  0  0  0  0  0  0  0  0  0  0
    0.7103   -2.0871    1.1612 H   0  0  0  0  0  0  0  0  0  0  0  0
   -0.4422   -1.7664    2.4681 H   0  0  0  0  0  0  0  0  0  0  0  0
  1  2  1  0
  2  3  1  0
  3  4  1  0
  4  5  1  0
  4  6  1  0
  4  7  1  0
  3  8  1  0
  8  9  1  0
  3 10  1  0
 10 11  1  0
  1 12  1  0
  1 13  1  0
  1 14  1  0
  9 15  1  0
  9 16  1  0
  9 17  1  0
 11 18  1  0
 11 19  1  0
 11 20  1  0
M  END
$$$$
