
     RDKit          3D

 20 20  0  0  0  0  0  0  0  0999 V2000
   -1.2511    1.0709    0.7722 C   0  0  0  0  0  0  0  0  0  0  0  0
   -1.6361   -0.2907    0.2007 C   0  0  0  0  0  0  0  0  0  0  0  0
   -0.4477   -1.2507    0.1824 C   0  0  0  0  0  0  0  0  0  0  0  0
    0.7458   -0.6472   -0.5661 C   0  0  0  0  0  0  0  0  0  0  0  0
    1.1344    0.7146    0.0201 C   0  0  0  0  0  0  0  0  0  0  0  0
   -0.0557    1.6724    0.0385 C   0  0  0  0  0  0  0  0  0  0  0  0
    1.8859   -1.5596   -0.5013 N   0  0  0  0  0  0  0  0  0  0  0  0
   -2.1058    1.7535    0.7063 H   0  0  0  0  0  0  0  0  0  0  0  0
   -1.0089    0.9638    1.8367 H   0  0  0  0  0  0  0  0  0  0  0  0
   -2.4495   -0.7228    0.7943 H   0  0  0  0  0  0  0  0  0  0  0  0
   -2.0177   -0.1636   -0.8199 H   0  0  0  0  0  0  0  0  0  0  0  0
   -0.7531   -2.1933   -0.2883 H   0  0  0  0  0  0  0  0  0  0  0  0
   -0.1645   -1.4890    1.2163 H   0  0  0  0  0  0  0  0  0  0  0  0
    0.4720   -0.5138   -1.6204 H   0  0  0  0  0  0  0  0  0  0  0  0
    1.9474    1.1614   -0.5653 H   0  0  0  0  0  0  0  0  0  0  0  0
    1.5107    0.5919    1.0445 H   0  0  0  0  0  0  0  0  0  0  0  0
   -0.3441    1.9153   -0.9916 H   0  0  0  0  0  0  0  0  0  0  0  0
    0.2360    2.6132    0.5188 H   0  0  0  0  0  0  0  0  0  0  0  0
    1.6402   -2.4477   -0.9366 H   0  0  0  0  0  0  0  0  0  0  0  0
    2.6618   -1.1787   -1.0414 H   0  0  0  0  0  0  0  0  0  0  0  0
  1  2  1  0
  2  3  1  0
  3  4  1  0
  4  5  1  0
  5  6  1  0
  4  7  1  0
  6  1  1  0
  1  8  1  0
  1  9  1  0
  2 10  1  0
  2 11  1  0
  3 12  1  0
  3 13  1  0
  4 14  1  0
  5 15  1  0
  5 16  1  0
  6 17  1  0
  6 18  1  0
  7 19  1  0
  7 20  1  0
M  END
$$$$
