
     RDKit          3D

 11 10  0  0  0  0  0  0  0  0999 V2000
   -1.3835   -0.2995   -0.1669 C   0  0  0  0  0  0  0  0  0  0  0  0
    0.0035    0.7883    0.0493 S   0  0  0  0  0  6  0  0  0  0  0  0
    0.1409    1.5780   -1.1587 O   0  0  0  0  0  0  0  0  0  0  0  0
   -0.1276    1.4225    1.3464 O   0  0  0  0  0  0  0  0  0  0  0  0
    1.3807   -0.3302    0.1275 C   0  0  0  0  0  0  0  0  0  0  0  0
   -1.4410   -0.9723    0.6906 H   0  0  0  0  0  0  0  0  0  0  0  0
   -1.2499   -0.8616   -1.0929 H   0  0  0  0  0  0  0  0  0  0  0  0
   -2.2879    0.3096   -0.2260 H   0  0  0  0  0  0  0  0  0  0  0  0
    1.4327   -0.8914   -0.8072 H   0  0  0  0  0  0  0  0  0  0  0  0
    2.2904    0.2587    0.2616 H   0  0  0  0  0  0  0  0  0  0  0  0
    1.2416   -1.0021    0.9763 H   0  0  0  0  0  0  0  0  0  0  0  0
  1  2  1  0
  2  3  2  0
  2  4  2  0
  2  5  1  0
  1  6  1  0
  1  7  1  0
  1  8  1  0
  5  9  1  0
  5 10  1  0
  5 11  1  0
M  END
$$$$
