
     RDKit          3D

 16 16  0  0  0  0  0  0  0  0999 V2000
    1.8529    0.9339   -0.0727 C   0  0  0  0  0  0  0  0  0  0  0  0
    2.0289   -0.4446   -0.1558 C   0  0  0  0  0  0  0  0  0  0  0  0
    0.9169   -1.2834   -0.1488 C   0  0  0  0  0  0  0  0  0  0  0  0
   -0.3725   -0.7314   -0.0416 C   0  0  0  0  0  0  0  0  0  0  0  0
   -0.5699    0.6571    0.0960 C   0  0  0  0  0  0  0  0  0  0  0  0
    0.5672    1.4765    0.0313 C   0  0  0  0  0  0  0  0  0  0  0  0
   -1.8305    1.2797    0.0587 N   0  0  0  0  0  0  0  0  0  0  0  0
   -1.5089   -1.6539   -0.0484 N   0  0  0  0  0  4  0  0  0  0  0  0
   -2.5252   -1.3301    0.5877 O   0  0  0  0  0  0  0  0  0  0  0  0
   -1.3798   -2.7190   -0.6708 O   0  0  0  0  0  1  0  0  0  0  0  0
    2.7165    1.5946   -0.1051 H   0  0  0  0  0  0  0  0  0  0  0  0
    3.0289   -0.8629   -0.2433 H   0  0  0  0  0  0  0  0  0  0  0  0
    1.0622   -2.3586   -0.2339 H   0  0  0  0  0  0  0  0  0  0  0  0
    0.4602    2.5592    0.0565 H   0  0  0  0  0  0  0  0  0  0  0  0
   -2.5887    0.6829    0.4023 H   0  0  0  0  0  0  0  0  0  0  0  0
   -1.8584    2.2000    0.4880 H   0  0  0  0  0  0  0  0  0  0  0  0
  1  2  2  0
  2  3  1  0
  3  4  2  0
  4  5  1  0
  5  6  2  0
  5  7  1  0
  4  8  1  0
  8  9  2  0
  8 10  1  0
  6  1  1  0
  1 11  1  0
  2 12  1  0
  3 13  1  0
  6 14  1  0
  7 15  1  0
  7 16  1  0
M  CHG  2   8   1  10  -1
M  END
$$$$
