
     RDKit          3D

 10 10  0  0  0  0  0  0  0  0999 V2000
    0.2824    1.1586    0.2299 C   0  0  0  0  0  0  0  0  0  0  0  0
    1.1679    0.0668    0.3961 C   0  0  0  0  0  0  0  0  0  0  0  0
    0.4347   -1.0861    0.2243 C   0  0  0  0  0  0  0  0  0  0  0  0
   -0.8617   -0.7280   -0.0397 N   0  0  0  0  0  0  0  0  0  0  0  0
   -0.9642    0.6387   -0.0383 C   0  0  0  0  0  0  0  0  0  0  0  0
    0.5279    2.2104    0.2986 H   0  0  0  0  0  0  0  0  0  0  0  0
    2.2262    0.1166    0.6173 H   0  0  0  0  0  0  0  0  0  0  0  0
    0.7234   -2.1277    0.2670 H   0  0  0  0  0  0  0  0  0  0  0  0
   -1.6237   -1.3719   -0.2091 H   0  0  0  0  0  0  0  0  0  0  0  0
   -1.9129    1.1226   -0.2277 H   0  0  0  0  0  0  0  0  0  0  0  0
  1  2  1  0
  2  3  2  0
  3  4  1  0
  4  5  1  0
  5  1  2  0
  1  6  1  0
  2  7  1  0
  3  8  1  0
  4  9  1  0
  5 10  1  0
M  END
$$$$
