
     RDKit          3D

 35 35  0  0  0  0  0  0  0  0999 V2000
   -2.9201    2.1094   -0.8170 C   0  0  0  0  0  0  0  0  0  0  0  0
   -1.6909    1.8661    0.0459 C   0  0  0  0  0  0  0  0  0  0  0  0
   -1.3605    0.4268    0.0973 N   0  0  0  0  0  0  0  0  0  0  0  0
   -2.2465   -0.4328    0.9082 C   0  0  0  0  0  0  0  0  0  0  0  0
   -3.0754   -1.3262   -0.0034 C   0  0  0  0  0  0  0  0  0  0  0  0
    0.0128    0.1395    0.1932 C   0  0  0  0  0  0  0  0  0  0  0  0
    0.8120    0.3882    1.3186 C   0  0  0  0  0  0  0  0  0  0  0  0
    2.1775    0.0665    1.3715 C   0  0  0  0  0  0  0  0  0  0  0  0
    2.8107   -0.5611    0.2817 C   0  0  0  0  0  0  0  0  0  0  0  0
    2.0581   -0.8733   -0.8676 C   0  0  0  0  0  0  0  0  0  0  0  0
    0.6957   -0.4523   -0.8973 C   0  0  0  0  0  0  0  0  0  0  0  0
   -0.0400   -0.6406   -2.1361 N   0  0  0  0  0  4  0  0  0  0  0  0
   -0.3476    0.3714   -2.7821 O   0  0  0  0  0  0  0  0  0  0  0  0
   -0.2427   -1.8130   -2.4909 O   0  0  0  0  0  1  0  0  0  0  0  0
    2.7034   -1.3766   -2.0141 N   0  0  0  0  0  0  0  0  0  0  0  0
    4.2944   -0.8379    0.3839 C   0  0  0  0  0  0  0  0  0  0  0  0
    5.0497    0.2112   -0.0370 F   0  0  0  0  0  0  0  0  0  0  0  0
    4.6898   -1.0921    1.6635 F   0  0  0  0  0  0  0  0  0  0  0  0
    4.6997   -1.9183   -0.3427 F   0  0  0  0  0  0  0  0  0  0  0  0
    0.2642    1.0294    2.4945 N   0  0  0  0  0  4  0  0  0  0  0  0
   -0.2508    0.2954    3.3473 O   0  0  0  0  0  0  0  0  0  0  0  0
    0.3987    2.2570    2.5743 O   0  0  0  0  0  1  0  0  0  0  0  0
   -2.7921    1.6844   -1.8176 H   0  0  0  0  0  0  0  0  0  0  0  0
   -3.1011    3.1839   -0.9217 H   0  0  0  0  0  0  0  0  0  0  0  0
   -3.8147    1.6634   -0.3716 H   0  0  0  0  0  0  0  0  0  0  0  0
   -1.8693    2.2603    1.0525 H   0  0  0  0  0  0  0  0  0  0  0  0
   -0.8583    2.4345   -0.3883 H   0  0  0  0  0  0  0  0  0  0  0  0
   -1.6800   -1.0780    1.5900 H   0  0  0  0  0  0  0  0  0  0  0  0
   -2.9140    0.1762    1.5292 H   0  0  0  0  0  0  0  0  0  0  0  0
   -2.4343   -1.9992   -0.5812 H   0  0  0  0  0  0  0  0  0  0  0  0
   -3.6689   -0.7408   -0.7117 H   0  0  0  0  0  0  0  0  0  0  0  0
   -3.7607   -1.9397    0.5898 H   0  0  0  0  0  0  0  0  0  0  0  0
    2.7557    0.3111    2.2649 H   0  0  0  0  0  0  0  0  0  0  0  0
    3.5489   -1.9262   -1.8493 H   0  0  0  0  0  0  0  0  0  0  0  0
    2.0965   -1.8667   -2.6767 H   0  0  0  0  0  0  0  0  0  0  0  0
  1  2  1  0
  2  3  1  0
  3  4  1  0
  4  5  1  0
  3  6  1  0
  6  7  2  0
  7  8  1  0
  8  9  2  0
  9 10  1  0
 10 11  2  0
 11 12  1  0
 12 13  2  0
 12 14  1  0
 10 15  1  0
  9 16  1  0
 16 17  1  0
 16 18  1  0
 16 19  1  0
  7 20  1  0
 20 21  2  0
 20 22  1  0
 11  6  1  0
  1 23  1  0
  1 24  1  0
  1 25  1  0
  2 26  1  0
  2 27  1  0
  4 28  1  0
  4 29  1  0
  5 30  1  0
  5 31  1  0
  5 32  1  0
  8 33  1  0
 15 34  1  0
 15 35  1  0
M  CHG  4  12   1  14  -1  20   1  22  -1
M  END
$$$$
