
     RDKit          3D

 13 12  0  0  0  0  0  0  0  0999 V2000
   -1.7196   -0.0785   -0.5442 C   0  0  0  0  0  0  0  0  0  0  0  0
   -0.2390   -0.4225   -0.5427 C   0  0  0  0  0  0  0  0  0  0  0  0
    0.5307    0.4672    0.4223 C   0  0  0  0  0  0  0  0  0  0  0  0
    1.9767    0.0774    0.3752 N   0  0  0  0  0  4  0  0  0  0  0  0
    2.6895    0.6578   -0.4529 O   0  0  0  0  0  0  0  0  0  0  0  0
    2.3490   -0.8007    1.1633 O   0  0  0  0  0  1  0  0  0  0  0  0
   -2.1548   -0.2148    0.4510 H   0  0  0  0  0  0  0  0  0  0  0  0
   -2.2588   -0.7263   -1.2424 H   0  0  0  0  0  0  0  0  0  0  0  0
   -1.8805    0.9600   -0.8509 H   0  0  0  0  0  0  0  0  0  0  0  0
   -0.1152   -1.4775   -0.2689 H   0  0  0  0  0  0  0  0  0  0  0  0
    0.1568   -0.3126   -1.5598 H   0  0  0  0  0  0  0  0  0  0  0  0
    0.1947    0.3449    1.4571 H   0  0  0  0  0  0  0  0  0  0  0  0
    0.4704    1.5256    0.1487 H   0  0  0  0  0  0  0  0  0  0  0  0
  1  2  1  0
  2  3  1  0
  3  4  1  0
  4  5  2  0
  4  6  1  0
  1  7  1  0
  1  8  1  0
  1  9  1  0
  2 10  1  0
  2 11  1  0
  3 12  1  0
  3 13  1  0
M  CHG  2   4   1   6  -1
M  END
$$$$
