
     RDKit          3D

  7  6  0  0  0  0  0  0  0  0999 V2000
   -0.6485   -0.0363   -0.0401 C   0  0  0  0  0  0  0  0  0  0  0  0
    0.8441    0.0409    0.0535 C   0  0  0  0  0  0  0  0  0  0  0  0
    1.4800    1.0749   -0.1224 O   0  0  0  0  0  0  0  0  0  0  0  0
   -1.0603    0.9465   -0.2824 H   0  0  0  0  0  0  0  0  0  0  0  0
   -0.9213   -0.7478   -0.8228 H   0  0  0  0  0  0  0  0  0  0  0  0
   -1.0500   -0.3723    0.9187 H   0  0  0  0  0  0  0  0  0  0  0  0
    1.3561   -0.9058    0.2954 H   0  0  0  0  0  0  0  0  0  0  0  0
  1  2  1  0
  2  3  2  0
  1  4  1  0
  1  5  1  0
  1  6  1  0
  2  7  1  0
M  END
$$$$
