
     RDKit          3D

 12 11  0  0  0  0  0  0  0  0999 V2000
    1.3315   -0.0680   -0.4467 C   0  0  0  0  0  0  0  0  0  0  0  0
    0.1166    0.1219    0.4485 C   0  0  1  0  0  0  0  0  0  0  0  0
   -1.1696    0.2651   -0.3757 C   0  0  0  0  0  0  0  0  0  0  0  0
   -1.1381    1.3702   -1.1520 F   0  0  0  0  0  0  0  0  0  0  0  0
   -2.2363    0.3796    0.4530 F   0  0  0  0  0  0  0  0  0  0  0  0
   -1.3876   -0.8006   -1.1742 F   0  0  0  0  0  0  0  0  0  0  0  0
    0.0738   -0.9786    1.3754 O   0  0  0  0  0  0  0  0  0  0  0  0
    1.2540   -0.9989   -1.0191 H   0  0  0  0  0  0  0  0  0  0  0  0
    2.2426   -0.1456    0.1565 H   0  0  0  0  0  0  0  0  0  0  0  0
    1.4468    0.7655   -1.1461 H   0  0  0  0  0  0  0  0  0  0  0  0
    0.2526    1.0300    1.0460 H   0  0  0  0  0  0  0  0  0  0  0  0
   -0.7865   -0.9408    1.8344 H   0  0  0  0  0  0  0  0  0  0  0  0
  1  2  1  0
  2  3  1  0
  3  4  1  0
  3  5  1  0
  3  6  1  0
  2  7  1  0
  1  8  1  0
  1  9  1  0
  1 10  1  0
  2 11  1  1
  7 12  1  0
M  END
$$$$
