
     RDKit          3D

  7  6  0  0  0  0  0  0  0  0999 V2000
   -0.6514   -0.0527   -0.0138 C   0  0  0  0  0  0  0  0  0  0  0  0
    0.8312    0.0655    0.0101 N   0  0  0  0  0  4  0  0  0  0  0  0
    1.3098    1.1814   -0.2246 O   0  0  0  0  0  0  0  0  0  0  0  0
    1.4721   -0.9565    0.2826 O   0  0  0  0  0  1  0  0  0  0  0  0
   -0.9107   -1.0689   -0.3187 H   0  0  0  0  0  0  0  0  0  0  0  0
   -1.0428    0.6714   -0.7315 H   0  0  0  0  0  0  0  0  0  0  0  0
   -1.0082    0.1597    0.9957 H   0  0  0  0  0  0  0  0  0  0  0  0
  1  2  1  0
  2  3  2  0
  2  4  1  0
  1  5  1  0
  1  6  1  0
  1  7  1  0
M  CHG  2   2   1   4  -1
M  END
$$$$
