
     RDKit          3D

 12 12  0  0  0  0  0  0  0  0999 V2000
    0.1677   -1.3380   -0.0832 C   0  0  0  0  0  0  0  0  0  0  0  0
    1.2441   -0.5447   -0.1580 C   0  0  0  0  0  0  0  0  0  0  0  0
    1.0243    0.9300   -0.0626 C   0  0  0  0  0  0  0  0  0  0  0  0
    1.9382    1.7471   -0.1190 O   0  0  0  0  0  0  0  0  0  0  0  0
   -0.2775    1.3339    0.0946 N   0  0  0  0  0  0  0  0  0  0  0  0
   -1.3636    0.5094    0.1688 C   0  0  0  0  0  0  0  0  0  0  0  0
   -2.5047    0.9330    0.3100 O   0  0  0  0  0  0  0  0  0  0  0  0
   -1.0931   -0.8286    0.0748 N   0  0  0  0  0  0  0  0  0  0  0  0
    2.9698   -1.2030   -0.3723 Br  0  0  0  0  0  0  0  0  0  0  0  0
    0.2395   -2.4196   -0.1438 H   0  0  0  0  0  0  0  0  0  0  0  0
   -0.4474    2.3254    0.1611 H   0  0  0  0  0  0  0  0  0  0  0  0
   -1.8972   -1.4450    0.1295 H   0  0  0  0  0  0  0  0  0  0  0  0
  1  2  2  0
  2  3  1  0
  3  4  2  0
  3  5  1  0
  5  6  1  0
  6  7  2  0
  6  8  1  0
  2  9  1  0
  8  1  1  0
  1 10  1  0
  5 11  1  0
  8 12  1  0
M  END
$$$$
