
     RDKit          3D

 17 17  0  0  0  0  0  0  0  0999 V2000
    2.3787   -0.8132    0.2355 C   0  0  0  0  0  0  0  0  0  0  0  0
    1.0981   -0.0549    0.0625 C   0  0  0  0  0  0  0  0  0  0  0  0
    1.0973    1.3377   -0.0068 C   0  0  0  0  0  0  0  0  0  0  0  0
   -0.1166    1.9930   -0.1343 C   0  0  0  0  0  0  0  0  0  0  0  0
   -1.3106    1.3649   -0.1872 N   0  0  0  0  0  0  0  0  0  0  0  0
   -1.3027    0.0142   -0.1049 C   0  0  0  0  0  0  0  0  0  0  0  0
   -0.1280   -0.7241    0.0248 C   0  0  0  0  0  0  0  0  0  0  0  0
   -2.6280   -0.6849   -0.1540 C   0  0  0  0  0  0  0  0  0  0  0  0
    2.5972   -0.9416    1.3000 H   0  0  0  0  0  0  0  0  0  0  0  0
    2.3144   -1.8002   -0.2346 H   0  0  0  0  0  0  0  0  0  0  0  0
    3.2134   -0.2833   -0.2354 H   0  0  0  0  0  0  0  0  0  0  0  0
    2.0193    1.9073    0.0365 H   0  0  0  0  0  0  0  0  0  0  0  0
   -0.1624    3.0764   -0.1967 H   0  0  0  0  0  0  0  0  0  0  0  0
   -0.1702   -1.8068    0.0947 H   0  0  0  0  0  0  0  0  0  0  0  0
   -2.7917   -1.2500    0.7689 H   0  0  0  0  0  0  0  0  0  0  0  0
   -2.6628   -1.3700   -1.0068 H   0  0  0  0  0  0  0  0  0  0  0  0
   -3.4452    0.0355   -0.2621 H   0  0  0  0  0  0  0  0  0  0  0  0
  1  2  1  0
  2  3  2  0
  3  4  1  0
  4  5  2  0
  5  6  1  0
  6  7  2  0
  6  8  1  0
  7  2  1  0
  1  9  1  0
  1 10  1  0
  1 11  1  0
  3 12  1  0
  4 13  1  0
  7 14  1  0
  8 15  1  0
  8 16  1  0
  8 17  1  0
M  END
$$$$
