
     RDKit          3D

 17 17  0  0  0  0  0  0  0  0999 V2000
   -2.1745    0.1638   -0.8591 C   0  0  0  0  0  0  0  0  0  0  0  0
   -1.4763   -0.2821    0.4164 C   0  0  0  0  0  0  0  0  0  0  0  0
    0.0181   -0.1251    0.3216 C   0  0  0  0  0  0  0  0  0  0  0  0
    0.8159   -1.1589   -0.1746 C   0  0  0  0  0  0  0  0  0  0  0  0
    2.1859   -0.9605   -0.2578 C   0  0  0  0  0  0  0  0  0  0  0  0
    2.8048    0.1814    0.1100 N   0  0  0  0  0  0  0  0  0  0  0  0
    2.0152    1.1701    0.5805 C   0  0  0  0  0  0  0  0  0  0  0  0
    0.6375    1.0680    0.7016 C   0  0  0  0  0  0  0  0  0  0  0  0
   -1.8414   -0.4244   -1.7210 H   0  0  0  0  0  0  0  0  0  0  0  0
   -1.9731    1.2187   -1.0745 H   0  0  0  0  0  0  0  0  0  0  0  0
   -3.2575    0.0385   -0.7613 H   0  0  0  0  0  0  0  0  0  0  0  0
   -1.7243   -1.3294    0.6278 H   0  0  0  0  0  0  0  0  0  0  0  0
   -1.8546    0.2969    1.2677 H   0  0  0  0  0  0  0  0  0  0  0  0
    0.3849   -2.1023   -0.4924 H   0  0  0  0  0  0  0  0  0  0  0  0
    2.8409   -1.7399   -0.6361 H   0  0  0  0  0  0  0  0  0  0  0  0
    2.5349    2.0799    0.8668 H   0  0  0  0  0  0  0  0  0  0  0  0
    0.0638    1.9053    1.0844 H   0  0  0  0  0  0  0  0  0  0  0  0
  1  2  1  0
  2  3  1  0
  3  4  2  0
  4  5  1  0
  5  6  2  0
  6  7  1  0
  7  8  2  0
  8  3  1  0
  1  9  1  0
  1 10  1  0
  1 11  1  0
  2 12  1  0
  2 13  1  0
  4 14  1  0
  5 15  1  0
  7 16  1  0
  8 17  1  0
M  END
$$$$
