
     RDKit          3D

  7  6  0  0  0  0  0  0  0  0999 V2000
   -0.9533    0.0664    0.0133 C   0  0  0  0  0  0  0  0  0  0  0  0
    0.5063   -0.0353   -0.0071 C   0  0  0  0  0  0  0  0  0  0  0  0
    1.7040   -0.1186   -0.0238 C   0  0  0  0  0  0  0  0  0  0  0  0
   -1.2962    0.8741   -0.6402 H   0  0  0  0  0  0  0  0  0  0  0  0
   -1.4130   -0.8657   -0.3289 H   0  0  0  0  0  0  0  0  0  0  0  0
   -1.3149    0.2718    1.0254 H   0  0  0  0  0  0  0  0  0  0  0  0
    2.7670   -0.1927   -0.0387 H   0  0  0  0  0  0  0  0  0  0  0  0
  1  2  1  0
  2  3  3  0
  1  4  1  0
  1  5  1  0
  1  6  1  0
  3  7  1  0
M  END
$$$$
