
     RDKit          3D

 16 16  0  0  0  0  0  0  0  0999 V2000
   -2.6853   -0.1596    0.1844 C   0  0  0  0  0  0  0  0  0  0  0  0
   -1.6918    0.8071   -0.1316 O   0  0  0  0  0  0  0  0  0  0  0  0
   -0.3894    0.3912   -0.0864 C   0  0  0  0  0  0  0  0  0  0  0  0
    0.0528   -0.8916    0.2406 C   0  0  0  0  0  0  0  0  0  0  0  0
    1.4210   -1.1822    0.2482 C   0  0  0  0  0  0  0  0  0  0  0  0
    2.3511   -0.1940   -0.0703 C   0  0  0  0  0  0  0  0  0  0  0  0
    1.9152    1.0875   -0.3973 C   0  0  0  0  0  0  0  0  0  0  0  0
    0.5495    1.3763   -0.4045 C   0  0  0  0  0  0  0  0  0  0  0  0
   -2.6674   -0.9916   -0.5273 H   0  0  0  0  0  0  0  0  0  0  0  0
   -3.6624    0.3264    0.1029 H   0  0  0  0  0  0  0  0  0  0  0  0
   -2.5761   -0.5163    1.2139 H   0  0  0  0  0  0  0  0  0  0  0  0
   -0.6383   -1.6880    0.4943 H   0  0  0  0  0  0  0  0  0  0  0  0
    1.7604   -2.1828    0.5036 H   0  0  0  0  0  0  0  0  0  0  0  0
    3.4136   -0.4227   -0.0636 H   0  0  0  0  0  0  0  0  0  0  0  0
    2.6347    1.8625   -0.6466 H   0  0  0  0  0  0  0  0  0  0  0  0
    0.2123    2.3777   -0.6602 H   0  0  0  0  0  0  0  0  0  0  0  0
  1  2  1  0
  2  3  1  0
  3  4  2  0
  4  5  1  0
  5  6  2  0
  6  7  1  0
  7  8  2  0
  8  3  1  0
  1  9  1  0
  1 10  1  0
  1 11  1  0
  4 12  1  0
  5 13  1  0
  6 14  1  0
  7 15  1  0
  8 16  1  0
M  END
$$$$
