
     RDKit          3D

  9  8  0  0  0  0  0  0  0  0999 V2000
   -1.0958   -0.0317    0.1565 C   0  0  0  0  0  0  0  0  0  0  0  0
    0.3051    0.5099    0.1358 C   0  0  0  0  0  0  0  0  0  0  0  0
    0.6022    1.6198    0.5605 O   0  0  0  0  0  0  0  0  0  0  0  0
    1.2464   -0.3184   -0.3953 N   0  0  0  0  0  0  0  0  0  0  0  0
   -1.1558   -1.0103   -0.3280 H   0  0  0  0  0  0  0  0  0  0  0  0
   -1.7544    0.6598   -0.3757 H   0  0  0  0  0  0  0  0  0  0  0  0
   -1.4249   -0.1328    1.1941 H   0  0  0  0  0  0  0  0  0  0  0  0
    1.0700   -1.2942   -0.5870 H   0  0  0  0  0  0  0  0  0  0  0  0
    2.2071   -0.0021   -0.3608 H   0  0  0  0  0  0  0  0  0  0  0  0
  1  2  1  0
  2  3  2  0
  2  4  1  0
  1  5  1  0
  1  6  1  0
  1  7  1  0
  4  8  1  0
  4  9  1  0
M  END
$$$$
