
     RDKit          3D

 44 46  0  0  0  0  0  0  0  0999 V2000
    4.7480   -0.1378    1.5526 C   0  0  0  0  0  0  0  0  0  0  0  0
    4.0040    0.3591    0.3915 N   0  0  0  0  0  0  0  0  0  0  0  0
    3.8738    1.8160    0.4800 C   0  0  0  0  0  0  0  0  0  0  0  0
    2.6864   -0.3041    0.3213 C   0  0  0  0  0  0  0  0  0  0  0  0
    1.9318   -0.0341   -0.9924 C   0  0  0  0  0  0  0  0  0  0  0  0
    0.6713   -0.8616   -1.0742 C   0  0  0  0  0  0  0  0  0  0  0  0
   -0.6091   -0.4575   -0.9072 C   0  0  0  0  0  0  0  0  0  0  0  0
   -1.6705   -1.5004   -0.9275 C   0  0  0  0  0  0  0  0  0  0  0  0
   -1.7605   -2.3389   -2.0579 C   0  0  0  0  0  0  0  0  0  0  0  0
   -2.7378   -3.3291   -2.1528 C   0  0  0  0  0  0  0  0  0  0  0  0
   -3.6534   -3.4915   -1.1231 C   0  0  0  0  0  0  0  0  0  0  0  0
   -3.5921   -2.6599   -0.0054 C   0  0  0  0  0  0  0  0  0  0  0  0
   -2.6067   -1.6555    0.1174 C   0  0  0  0  0  0  0  0  0  0  0  0
   -2.6904   -0.7970    1.3694 C   0  0  0  0  0  0  0  0  0  0  0  0
   -1.5175    0.1145    1.7475 C   0  0  0  0  0  0  0  0  0  0  0  0
   -1.3303    1.2371    0.7574 C   0  0  0  0  0  0  0  0  0  0  0  0
   -0.9030    0.9454   -0.5481 C   0  0  0  0  0  0  0  0  0  0  0  0
   -0.7864    1.9748   -1.4907 C   0  0  0  0  0  0  0  0  0  0  0  0
   -1.0632    3.2931   -1.1291 C   0  0  0  0  0  0  0  0  0  0  0  0
   -1.4669    3.5879    0.1718 C   0  0  0  0  0  0  0  0  0  0  0  0
   -1.6043    2.5652    1.1115 C   0  0  0  0  0  0  0  0  0  0  0  0
    5.7444    0.3162    1.5951 H   0  0  0  0  0  0  0  0  0  0  0  0
    4.2315    0.0729    2.4962 H   0  0  0  0  0  0  0  0  0  0  0  0
    4.9034   -1.2198    1.4773 H   0  0  0  0  0  0  0  0  0  0  0  0
    3.4345    2.2323   -0.4316 H   0  0  0  0  0  0  0  0  0  0  0  0
    4.8603    2.2840    0.5772 H   0  0  0  0  0  0  0  0  0  0  0  0
    3.2630    2.1260    1.3356 H   0  0  0  0  0  0  0  0  0  0  0  0
    2.8384   -1.3896    0.3975 H   0  0  0  0  0  0  0  0  0  0  0  0
    2.0625   -0.0141    1.1778 H   0  0  0  0  0  0  0  0  0  0  0  0
    1.7169    1.0315   -1.0953 H   0  0  0  0  0  0  0  0  0  0  0  0
    2.5667   -0.3011   -1.8466 H   0  0  0  0  0  0  0  0  0  0  0  0
    0.8680   -1.9181   -1.2591 H   0  0  0  0  0  0  0  0  0  0  0  0
   -1.0661   -2.2142   -2.8866 H   0  0  0  0  0  0  0  0  0  0  0  0
   -2.7858   -3.9636   -3.0334 H   0  0  0  0  0  0  0  0  0  0  0  0
   -4.4226   -4.2560   -1.1914 H   0  0  0  0  0  0  0  0  0  0  0  0
   -4.3318   -2.7931    0.7825 H   0  0  0  0  0  0  0  0  0  0  0  0
   -2.8423   -1.4765    2.2194 H   0  0  0  0  0  0  0  0  0  0  0  0
   -3.5999   -0.1862    1.2852 H   0  0  0  0  0  0  0  0  0  0  0  0
   -1.7138    0.5374    2.7412 H   0  0  0  0  0  0  0  0  0  0  0  0
   -0.5871   -0.4583    1.8485 H   0  0  0  0  0  0  0  0  0  0  0  0
   -0.4762    1.7506   -2.5083 H   0  0  0  0  0  0  0  0  0  0  0  0
   -0.9662    4.0886   -1.8630 H   0  0  0  0  0  0  0  0  0  0  0  0
   -1.6847    4.6152    0.4523 H   0  0  0  0  0  0  0  0  0  0  0  0
   -1.9359    2.8106    2.1175 H   0  0  0  0  0  0  0  0  0  0  0  0
  1  2  1  0
  2  3  1  0
  2  4  1  0
  4  5  1  0
  5  6  1  0
  6  7  2  3
  7  8  1  0
  8  9  2  0
  9 10  1  0
 10 11  2  0
 11 12  1  0
 12 13  2  0
 13 14  1  0
 14 15  1  0
 15 16  1  0
 16 17  2  0
 17 18  1  0
 18 19  2  0
 19 20  1  0
 20 21  2  0
 17  7  1  0
 13  8  1  0
 21 16  1  0
  1 22  1  0
  1 23  1  0
  1 24  1  0
  3 25  1  0
  3 26  1  0
  3 27  1  0
  4 28  1  0
  4 29  1  0
  5 30  1  0
  5 31  1  0
  6 32  1  0
  9 33  1  0
 10 34  1  0
 11 35  1  0
 12 36  1  0
 14 37  1  0
 14 38  1  0
 15 39  1  0
 15 40  1  0
 18 41  1  0
 19 42  1  0
 20 43  1  0
 21 44  1  0
M  END
$$$$
