
     RDKit          3D

 24 25  0  0  0  0  0  0  0  0999 V2000
    3.0687    0.1669   -0.0457 C   0  0  0  0  0  0  0  0  0  0  0  0
    1.6432   -0.3229   -0.0592 C   0  0  0  0  0  0  0  0  0  0  0  0
    1.4194   -1.7010   -0.1708 C   0  0  0  0  0  0  0  0  0  0  0  0
    0.1264   -2.2104   -0.1886 C   0  0  0  0  0  0  0  0  0  0  0  0
   -0.9796   -1.3562   -0.0951 C   0  0  0  0  0  0  0  0  0  0  0  0
   -0.7832    0.0459    0.0191 C   0  0  0  0  0  0  0  0  0  0  0  0
    0.5408    0.5675    0.0373 C   0  0  0  0  0  0  0  0  0  0  0  0
    0.7094    1.9670    0.1518 C   0  0  0  0  0  0  0  0  0  0  0  0
   -0.3768    2.8371    0.2462 C   0  0  0  0  0  0  0  0  0  0  0  0
   -1.6651    2.3296    0.2285 C   0  0  0  0  0  0  0  0  0  0  0  0
   -1.8635    0.9534    0.1165 C   0  0  0  0  0  0  0  0  0  0  0  0
   -2.3560   -1.9701   -0.1200 C   0  0  0  0  0  0  0  0  0  0  0  0
    3.2836    0.6877    0.8930 H   0  0  0  0  0  0  0  0  0  0  0  0
    3.7812   -0.6610   -0.1292 H   0  0  0  0  0  0  0  0  0  0  0  0
    3.2489    0.8380   -0.8916 H   0  0  0  0  0  0  0  0  0  0  0  0
    2.2564   -2.3919   -0.2453 H   0  0  0  0  0  0  0  0  0  0  0  0
   -0.0126   -3.2858   -0.2764 H   0  0  0  0  0  0  0  0  0  0  0  0
    1.7045    2.4050    0.1693 H   0  0  0  0  0  0  0  0  0  0  0  0
   -0.2109    3.9073    0.3331 H   0  0  0  0  0  0  0  0  0  0  0  0
   -2.5182    2.9984    0.3014 H   0  0  0  0  0  0  0  0  0  0  0  0
   -2.8901    0.5950    0.1063 H   0  0  0  0  0  0  0  0  0  0  0  0
   -2.8906   -1.7445    0.8083 H   0  0  0  0  0  0  0  0  0  0  0  0
   -2.3104   -3.0607   -0.2127 H   0  0  0  0  0  0  0  0  0  0  0  0
   -2.9253   -1.5943   -0.9763 H   0  0  0  0  0  0  0  0  0  0  0  0
  1  2  1  0
  2  3  2  0
  3  4  1  0
  4  5  2  0
  5  6  1  0
  6  7  2  0
  7  8  1  0
  8  9  2  0
  9 10  1  0
 10 11  2  0
  5 12  1  0
  7  2  1  0
 11  6  1  0
  1 13  1  0
  1 14  1  0
  1 15  1  0
  3 16  1  0
  4 17  1  0
  8 18  1  0
  9 19  1  0
 10 20  1  0
 11 21  1  0
 12 22  1  0
 12 23  1  0
 12 24  1  0
M  END
$$$$
