
     RDKit          3D

 13 13  0  0  0  0  0  0  0  0999 V2000
   -1.7699   -0.0942    0.0707 C   0  0  0  0  0  0  0  0  0  0  0  0
   -1.1408    1.1379   -0.0928 C   0  0  0  0  0  0  0  0  0  0  0  0
    0.2560    1.2136   -0.1487 C   0  0  0  0  0  0  0  0  0  0  0  0
    1.0388    0.0553   -0.0415 C   0  0  0  0  0  0  0  0  0  0  0  0
    0.3942   -1.1790    0.1228 C   0  0  0  0  0  0  0  0  0  0  0  0
   -1.0027   -1.2521    0.1784 C   0  0  0  0  0  0  0  0  0  0  0  0
    1.2711   -2.6638    0.2645 Cl  0  0  0  0  0  0  0  0  0  0  0  0
    2.4689    0.1315   -0.0986 C   0  0  0  0  0  0  0  0  0  0  0  0
    3.6272    0.1932   -0.1448 N   0  0  0  0  0  0  0  0  0  0  0  0
    0.9564    2.7824   -0.3534 Cl  0  0  0  0  0  0  0  0  0  0  0  0
   -2.8556   -0.1521    0.1140 H   0  0  0  0  0  0  0  0  0  0  0  0
   -1.7446    2.0397   -0.1765 H   0  0  0  0  0  0  0  0  0  0  0  0
   -1.4989   -2.2125    0.3060 H   0  0  0  0  0  0  0  0  0  0  0  0
  1  2  2  0
  2  3  1  0
  3  4  2  0
  4  5  1  0
  5  6  2  0
  5  7  1  0
  4  8  1  0
  8  9  3  0
  3 10  1  0
  6  1  1  0
  1 11  1  0
  2 12  1  0
  6 13  1  0
M  END
$$$$
