
     RDKit          3D

 12 11  0  0  0  0  0  0  0  0999 V2000
   -1.5046   -0.5613   -0.1427 C   0  0  0  0  0  0  0  0  0  0  0  0
   -0.4662    0.3797    0.4479 C   0  0  0  0  0  0  0  0  0  0  0  0
    0.7693    0.4360   -0.4021 C   0  0  0  0  0  0  0  0  0  0  0  0
    1.9862    0.0671    0.0171 C   0  0  0  0  0  0  0  0  0  0  0  0
   -2.4009   -0.5772    0.4856 H   0  0  0  0  0  0  0  0  0  0  0  0
   -1.1192   -1.5844   -0.2087 H   0  0  0  0  0  0  0  0  0  0  0  0
   -1.8026   -0.2435   -1.1477 H   0  0  0  0  0  0  0  0  0  0  0  0
   -0.8887    1.3883    0.5218 H   0  0  0  0  0  0  0  0  0  0  0  0
   -0.2263    0.0578    1.4680 H   0  0  0  0  0  0  0  0  0  0  0  0
    0.6529    0.8121   -1.4167 H   0  0  0  0  0  0  0  0  0  0  0  0
    2.1547   -0.3098    1.0211 H   0  0  0  0  0  0  0  0  0  0  0  0
    2.8452    0.1352   -0.6434 H   0  0  0  0  0  0  0  0  0  0  0  0
  1  2  1  0
  2  3  1  0
  3  4  2  3
  1  5  1  0
  1  6  1  0
  1  7  1  0
  2  8  1  0
  2  9  1  0
  3 10  1  0
  4 11  1  0
  4 12  1  0
M  END
$$$$
