
     RDKit          3D

 10  9  0  0  0  0  0  0  0  0999 V2000
    1.2865   -0.1183    0.0229 C   0  0  0  0  0  0  0  0  0  0  0  0
   -0.0231    0.6145   -0.0883 C   0  0  0  0  0  0  0  0  0  0  0  0
   -0.0688    1.8312   -0.2632 O   0  0  0  0  0  0  0  0  0  0  0  0
   -1.2740   -0.2143    0.0249 C   0  0  0  0  0  0  0  0  0  0  0  0
    1.3598   -0.8606   -0.7757 H   0  0  0  0  0  0  0  0  0  0  0  0
    2.1145    0.5893   -0.0749 H   0  0  0  0  0  0  0  0  0  0  0  0
    1.3517   -0.6059    0.9987 H   0  0  0  0  0  0  0  0  0  0  0  0
   -1.3010   -0.7053    1.0007 H   0  0  0  0  0  0  0  0  0  0  0  0
   -1.2928   -0.9600   -0.7736 H   0  0  0  0  0  0  0  0  0  0  0  0
   -2.1528    0.4293   -0.0715 H   0  0  0  0  0  0  0  0  0  0  0  0
  1  2  1  0
  2  3  2  0
  2  4  1  0
  1  5  1  0
  1  6  1  0
  1  7  1  0
  4  8  1  0
  4  9  1  0
  4 10  1  0
M  END
$$$$
