
     RDKit          3D

 13 13  0  0  0  0  0  0  0  0999 V2000
    1.0570   -0.0697   -0.0447 C   0  0  0  0  0  0  0  0  0  0  0  0
   -0.0866   -1.0453   -0.1547 C   0  0  0  0  0  0  0  0  0  0  0  0
   -1.2517   -0.1271   -0.4537 C   0  0  0  0  0  0  0  0  0  0  0  0
   -0.9742    1.1193    0.2003 O   0  0  0  0  0  0  0  0  0  0  0  0
    0.3946    1.1119    0.6299 C   0  0  0  0  0  0  0  0  0  0  0  0
    1.3990    0.2151   -1.0468 H   0  0  0  0  0  0  0  0  0  0  0  0
    1.9137   -0.4557    0.5135 H   0  0  0  0  0  0  0  0  0  0  0  0
   -0.2416   -1.5448    0.8089 H   0  0  0  0  0  0  0  0  0  0  0  0
    0.0603   -1.8124   -0.9193 H   0  0  0  0  0  0  0  0  0  0  0  0
   -2.2050   -0.5270   -0.0971 H   0  0  0  0  0  0  0  0  0  0  0  0
   -1.3351    0.0708   -1.5277 H   0  0  0  0  0  0  0  0  0  0  0  0
    0.8678    2.0635    0.3720 H   0  0  0  0  0  0  0  0  0  0  0  0
    0.4018    1.0015    1.7195 H   0  0  0  0  0  0  0  0  0  0  0  0
  1  2  1  0
  2  3  1  0
  3  4  1  0
  4  5  1  0
  5  1  1  0
  1  6  1  0
  1  7  1  0
  2  8  1  0
  2  9  1  0
  3 10  1  0
  3 11  1  0
  5 12  1  0
  5 13  1  0
M  END
$$$$
