
     RDKit          3D

 17 17  0  0  0  0  0  0  0  0999 V2000
   -2.8207    0.0487    0.0292 C   0  0  0  0  0  0  0  0  0  0  0  0
   -1.3261    0.0665    0.0133 C   0  0  0  0  0  0  0  0  0  0  0  0
   -0.5794   -0.8683    0.7292 C   0  0  0  0  0  0  0  0  0  0  0  0
    0.8116   -0.8388    0.6612 C   0  0  0  0  0  0  0  0  0  0  0  0
    1.4255    0.1237   -0.1341 C   0  0  0  0  0  0  0  0  0  0  0  0
    0.7230    1.0320   -0.8498 N   0  0  0  0  0  0  0  0  0  0  0  0
   -0.6260    0.9804   -0.7648 C   0  0  0  0  0  0  0  0  0  0  0  0
    2.9204    0.1809   -0.2280 C   0  0  0  0  0  0  0  0  0  0  0  0
   -3.1972   -0.5945   -0.7721 H   0  0  0  0  0  0  0  0  0  0  0  0
   -3.2252    1.0571   -0.1073 H   0  0  0  0  0  0  0  0  0  0  0  0
   -3.1968   -0.3247    0.9875 H   0  0  0  0  0  0  0  0  0  0  0  0
   -1.0716   -1.6199    1.3407 H   0  0  0  0  0  0  0  0  0  0  0  0
    1.4026   -1.5581    1.2185 H   0  0  0  0  0  0  0  0  0  0  0  0
   -1.1442    1.7241   -1.3643 H   0  0  0  0  0  0  0  0  0  0  0  0
    3.3552    0.3537    0.7613 H   0  0  0  0  0  0  0  0  0  0  0  0
    3.3099   -0.7580   -0.6336 H   0  0  0  0  0  0  0  0  0  0  0  0
    3.2389    0.9951   -0.8870 H   0  0  0  0  0  0  0  0  0  0  0  0
  1  2  1  0
  2  3  2  0
  3  4  1  0
  4  5  2  0
  5  6  1  0
  6  7  2  0
  5  8  1  0
  7  2  1  0
  1  9  1  0
  1 10  1  0
  1 11  1  0
  3 12  1  0
  4 13  1  0
  7 14  1  0
  8 15  1  0
  8 16  1  0
  8 17  1  0
M  END
$$$$
