
     RDKit          3D

 19 19  0  0  0  0  0  0  0  0999 V2000
    3.0884   -0.0802    0.1230 C   0  0  0  0  0  0  0  0  0  0  0  0
    2.5183   -1.1335    0.8333 C   0  0  0  0  0  0  0  0  0  0  0  0
    1.1342   -1.1872    1.0061 C   0  0  0  0  0  0  0  0  0  0  0  0
    0.3103   -0.1964    0.4647 C   0  0  0  0  0  0  0  0  0  0  0  0
    0.8878    0.8649   -0.2337 C   0  0  0  0  0  0  0  0  0  0  0  0
    2.2744    0.9196   -0.4064 C   0  0  0  0  0  0  0  0  0  0  0  0
   -1.0246   -0.3677    0.7032 O   0  0  0  0  0  0  0  0  0  0  0  0
   -1.9284    0.4026   -0.0916 C   0  0  1  0  0  0  0  0  0  0  0  0
   -3.3472   -0.1346    0.0694 C   0  0  0  0  0  0  0  0  0  0  0  0
   -3.8341    0.1179    1.3118 F   0  0  0  0  0  0  0  0  0  0  0  0
   -4.1874    0.4712   -0.8103 F   0  0  0  0  0  0  0  0  0  0  0  0
   -1.8708    1.7004    0.3175 F   0  0  0  0  0  0  0  0  0  0  0  0
    4.1662   -0.0323   -0.0094 H   0  0  0  0  0  0  0  0  0  0  0  0
    3.1493   -1.9103    1.2571 H   0  0  0  0  0  0  0  0  0  0  0  0
    0.6965   -2.0089    1.5675 H   0  0  0  0  0  0  0  0  0  0  0  0
    0.2929    1.6788   -0.6368 H   0  0  0  0  0  0  0  0  0  0  0  0
    2.7200    1.7512   -0.9469 H   0  0  0  0  0  0  0  0  0  0  0  0
   -1.6557    0.3593   -1.1531 H   0  0  0  0  0  0  0  0  0  0  0  0
   -3.3901   -1.2149   -0.0966 H   0  0  0  0  0  0  0  0  0  0  0  0
  1  2  2  0
  2  3  1  0
  3  4  2  0
  4  5  1  0
  5  6  2  0
  4  7  1  0
  7  8  1  0
  8  9  1  0
  9 10  1  0
  9 11  1  0
  8 12  1  0
  6  1  1  0
  1 13  1  0
  2 14  1  0
  3 15  1  0
  5 16  1  0
  6 17  1  0
  8 18  1  6
  9 19  1  0
M  END
$$$$
