
     RDKit          3D

 25 27  0  0  0  0  0  0  0  0999 V2000
    1.0081   -1.6288    0.4424 C   0  0  0  0  0  0  0  0  0  0  0  0
    0.1291   -0.8959   -0.5737 C   0  0  2  0  0  0  0  0  0  0  0  0
    0.3792    0.6550   -0.7587 C   0  0  2  0  0  0  0  0  0  0  0  0
    1.4790    1.2918    0.0940 C   0  0  0  0  0  0  0  0  0  0  0  0
    2.7436    0.7610   -0.2910 O   0  0  0  0  0  0  0  0  0  0  0  0
    3.3203   -0.4665    0.5765 S   0  0  0  0  0  4  0  0  0  0  0  0
    2.9604   -0.2372    2.0126 O   0  0  0  0  0  0  0  0  0  0  0  0
    2.3599   -1.6194   -0.0070 O   0  0  0  0  0  0  0  0  0  0  0  0
   -1.0555    1.2491   -0.5422 C   0  0  2  0  0  0  0  0  0  0  0  0
   -1.4296    1.0213    0.9091 C   0  0  0  0  0  0  0  0  0  0  0  0
   -1.6411   -0.2906    1.0656 C   0  0  0  0  0  0  0  0  0  0  0  0
   -1.4100   -0.9497   -0.2798 C   0  0  1  0  0  0  0  0  0  0  0  0
   -1.9718    0.1735   -1.2105 C   0  0  0  0  0  0  0  0  0  0  0  0
   -1.6781   -0.0834   -2.9665 Cl  0  0  0  0  0  0  0  0  0  0  0  0
   -3.7443    0.4797   -1.0388 Cl  0  0  0  0  0  0  0  0  0  0  0  0
   -2.1207   -2.5393   -0.5031 Cl  0  0  0  0  0  0  0  0  0  0  0  0
   -2.0293   -1.1207    2.4887 Cl  0  0  0  0  0  0  0  0  0  0  0  0
   -1.4885    2.2339    2.0885 Cl  0  0  0  0  0  0  0  0  0  0  0  0
   -1.2462    2.8849   -1.1502 Cl  0  0  0  0  0  0  0  0  0  0  0  0
    0.8973   -1.2429    1.4605 H   0  0  0  0  0  0  0  0  0  0  0  0
    0.7088   -2.6819    0.4855 H   0  0  0  0  0  0  0  0  0  0  0  0
    0.3330   -1.3639   -1.5478 H   0  0  0  0  0  0  0  0  0  0  0  0
    0.6819    0.8002   -1.8060 H   0  0  0  0  0  0  0  0  0  0  0  0
    1.2918    1.2036    1.1686 H   0  0  0  0  0  0  0  0  0  0  0  0
    1.5227    2.3661   -0.1167 H   0  0  0  0  0  0  0  0  0  0  0  0
  1  2  1  0
  2  3  1  0
  3  4  1  0
  4  5  1  0
  5  6  1  0
  6  7  2  0
  6  8  1  0
  3  9  1  0
  9 10  1  0
 10 11  2  0
 11 12  1  0
 12 13  1  0
 13 14  1  0
 13 15  1  0
 12 16  1  1
 11 17  1  0
 10 18  1  0
  9 19  1  6
  8  1  1  0
 12  2  1  0
 13  9  1  0
  1 20  1  0
  1 21  1  0
  2 22  1  6
  3 23  1  6
  4 24  1  0
  4 25  1  0
M  END
$$$$
