
     RDKit          3D

 20 19  0  0  0  0  0  0  0  0999 V2000
    2.0461   -0.1204   -0.7027 C   0  0  0  0  0  0  0  0  0  0  0  0
    1.1057    0.2893    0.4244 C   0  0  0  0  0  0  0  0  0  0  0  0
   -0.4029    0.0377    0.1700 C   0  0  0  0  0  0  0  0  0  0  0  0
   -1.1855    0.5118    1.4102 C   0  0  0  0  0  0  0  0  0  0  0  0
   -0.6879   -1.4580   -0.0447 C   0  0  0  0  0  0  0  0  0  0  0  0
   -0.8993    0.8279   -1.0520 C   0  0  0  0  0  0  0  0  0  0  0  0
    3.0806    0.1003   -0.4191 H   0  0  0  0  0  0  0  0  0  0  0  0
    1.9854   -1.1922   -0.9107 H   0  0  0  0  0  0  0  0  0  0  0  0
    1.8355    0.4284   -1.6248 H   0  0  0  0  0  0  0  0  0  0  0  0
    1.2651    1.3563    0.6282 H   0  0  0  0  0  0  0  0  0  0  0  0
    1.4132   -0.2441    1.3334 H   0  0  0  0  0  0  0  0  0  0  0  0
   -1.0234    1.5795    1.5961 H   0  0  0  0  0  0  0  0  0  0  0  0
   -2.2630    0.3565    1.2842 H   0  0  0  0  0  0  0  0  0  0  0  0
   -0.8741   -0.0349    2.3075 H   0  0  0  0  0  0  0  0  0  0  0  0
   -1.7649   -1.6463   -0.1232 H   0  0  0  0  0  0  0  0  0  0  0  0
   -0.3063   -2.0566    0.7899 H   0  0  0  0  0  0  0  0  0  0  0  0
   -0.2274   -1.8309   -0.9654 H   0  0  0  0  0  0  0  0  0  0  0  0
   -0.4404    0.4712   -1.9799 H   0  0  0  0  0  0  0  0  0  0  0  0
   -1.9847    0.7295   -1.1701 H   0  0  0  0  0  0  0  0  0  0  0  0
   -0.6718    1.8949   -0.9514 H   0  0  0  0  0  0  0  0  0  0  0  0
  1  2  1  0
  2  3  1  0
  3  4  1  0
  3  5  1  0
  3  6  1  0
  1  7  1  0
  1  8  1  0
  1  9  1  0
  2 10  1  0
  2 11  1  0
  4 12  1  0
  4 13  1  0
  4 14  1  0
  5 15  1  0
  5 16  1  0
  5 17  1  0
  6 18  1  0
  6 19  1  0
  6 20  1  0
M  END
$$$$
