
     RDKit          3D

  5  4  0  0  0  0  0  0  0  0999 V2000
   -0.0016   -0.2468    0.0074 C   0  0  0  0  0  0  0  0  0  0  0  0
   -1.6957    1.0266   -0.0617 I   0  0  0  0  0  0  0  0  0  0  0  0
    1.7088    1.0066    0.0006 I   0  0  0  0  0  0  0  0  0  0  0  0
    0.0102   -0.9198   -0.8555 H   0  0  0  0  0  0  0  0  0  0  0  0
   -0.0217   -0.8666    0.9092 H   0  0  0  0  0  0  0  0  0  0  0  0
  1  2  1  0
  1  3  1  0
  1  4  1  0
  1  5  1  0
M  END
$$$$
