
     RDKit          3D

 12 11  0  0  0  0  0  0  0  0999 V2000
   -1.7909    0.1620    0.5459 C   0  0  0  0  0  0  0  0  0  0  0  0
   -0.2975    0.4007    0.6472 C   0  0  0  0  0  0  0  0  0  0  0  0
    0.3764   -0.6678   -0.0132 O   0  0  0  0  0  0  0  0  0  0  0  0
    1.7878   -0.5104    0.0416 C   0  0  0  0  0  0  0  0  0  0  0  0
   -2.0606   -0.7946    1.0056 H   0  0  0  0  0  0  0  0  0  0  0  0
   -2.1030    0.1108   -0.5025 H   0  0  0  0  0  0  0  0  0  0  0  0
   -2.3485    0.9615    1.0416 H   0  0  0  0  0  0  0  0  0  0  0  0
    0.0037    0.4335    1.7001 H   0  0  0  0  0  0  0  0  0  0  0  0
   -0.0393    1.3523    0.1697 H   0  0  0  0  0  0  0  0  0  0  0  0
    2.1331   -0.5084    1.0800 H   0  0  0  0  0  0  0  0  0  0  0  0
    2.2490   -1.3545   -0.4781 H   0  0  0  0  0  0  0  0  0  0  0  0
    2.0898    0.4150   -0.4581 H   0  0  0  0  0  0  0  0  0  0  0  0
  1  2  1  0
  2  3  1  0
  3  4  1  0
  1  5  1  0
  1  6  1  0
  1  7  1  0
  2  8  1  0
  2  9  1  0
  4 10  1  0
  4 11  1  0
  4 12  1  0
M  END
$$$$
