
     RDKit          3D

 12 11  0  0  0  0  0  0  0  0999 V2000
    0.2829    0.8013    0.3950 C   0  0  2  0  0  0  0  0  0  0  0  0
    1.3918   -0.2061    0.0409 C   0  0  0  0  0  0  0  0  0  0  0  0
    0.9500   -1.4809    0.1810 F   0  0  0  0  0  0  0  0  0  0  0  0
    2.4726   -0.0778    0.8425 F   0  0  0  0  0  0  0  0  0  0  0  0
    1.8038   -0.0771   -1.2407 F   0  0  0  0  0  0  0  0  0  0  0  0
   -0.8623    0.7738   -0.4612 O   0  0  0  0  0  0  0  0  0  0  0  0
   -1.5208   -0.4758   -0.4366 C   0  0  0  0  0  0  0  0  0  0  0  0
   -1.5425   -0.9335    0.8356 F   0  0  0  0  0  0  0  0  0  0  0  0
   -2.8042   -0.2611   -0.8024 F   0  0  0  0  0  0  0  0  0  0  0  0
    0.9216    2.4826    0.3211 Cl  0  0  0  0  0  0  0  0  0  0  0  0
   -0.0315    0.6599    1.4341 H   0  0  0  0  0  0  0  0  0  0  0  0
   -1.0613   -1.2055   -1.1093 H   0  0  0  0  0  0  0  0  0  0  0  0
  1  2  1  0
  2  3  1  0
  2  4  1  0
  2  5  1  0
  1  6  1  0
  6  7  1  0
  7  8  1  0
  7  9  1  0
  1 10  1  0
  1 11  1  1
  7 12  1  0
M  END
$$$$
