
     RDKit          3D

 21 21  0  0  0  0  0  0  0  0999 V2000
   -3.7163    0.5462   -0.1080 C   0  0  0  0  0  0  0  0  0  0  0  0
   -2.7353   -0.5624    0.2199 C   0  0  0  0  0  0  0  0  0  0  0  0
   -1.4089   -0.0544    0.0325 O   0  0  0  0  0  0  0  0  0  0  0  0
   -0.4275   -0.9536    0.2945 C   0  0  0  0  0  0  0  0  0  0  0  0
   -0.5957   -2.1064    0.6604 O   0  0  0  0  0  0  0  0  0  0  0  0
    0.9138   -0.3465    0.0756 C   0  0  0  0  0  0  0  0  0  0  0  0
    1.0801    0.9804   -0.3449 C   0  0  0  0  0  0  0  0  0  0  0  0
    2.3629    1.5005   -0.5353 C   0  0  0  0  0  0  0  0  0  0  0  0
    3.4828    0.7013   -0.3076 C   0  0  0  0  0  0  0  0  0  0  0  0
    3.3254   -0.6192    0.1108 C   0  0  0  0  0  0  0  0  0  0  0  0
    2.0451   -1.1428    0.3022 C   0  0  0  0  0  0  0  0  0  0  0  0
   -3.5823    0.8867   -1.1401 H   0  0  0  0  0  0  0  0  0  0  0  0
   -4.7475    0.2056    0.0207 H   0  0  0  0  0  0  0  0  0  0  0  0
   -3.5471    1.4141    0.5379 H   0  0  0  0  0  0  0  0  0  0  0  0
   -2.8672   -0.8772    1.2611 H   0  0  0  0  0  0  0  0  0  0  0  0
   -2.9030   -1.4145   -0.4483 H   0  0  0  0  0  0  0  0  0  0  0  0
    0.2212    1.6210   -0.5283 H   0  0  0  0  0  0  0  0  0  0  0  0
    2.4880    2.5302   -0.8616 H   0  0  0  0  0  0  0  0  0  0  0  0
    4.4801    1.1084   -0.4564 H   0  0  0  0  0  0  0  0  0  0  0  0
    4.1985   -1.2423    0.2884 H   0  0  0  0  0  0  0  0  0  0  0  0
    1.9328   -2.1750    0.6290 H   0  0  0  0  0  0  0  0  0  0  0  0
  1  2  1  0
  2  3  1  0
  3  4  1  0
  4  5  2  0
  4  6  1  0
  6  7  2  0
  7  8  1  0
  8  9  2  0
  9 10  1  0
 10 11  2  0
 11  6  1  0
  1 12  1  0
  1 13  1  0
  1 14  1  0
  2 15  1  0
  2 16  1  0
  7 17  1  0
  8 18  1  0
  9 19  1  0
 10 20  1  0
 11 21  1  0
M  END
$$$$
