
     RDKit          3D

 21 21  0  0  0  0  0  0  0  0999 V2000
    3.3255   -0.1602    0.0472 C   0  0  0  0  0  0  0  0  0  0  0  0
    1.8698    0.0543   -0.3355 C   0  0  0  0  0  0  0  0  0  0  0  0
    0.9309   -0.3052    0.8165 C   0  0  0  0  0  0  0  0  0  0  0  0
   -0.5152   -0.0946    0.4435 C   0  0  0  0  0  0  0  0  0  0  0  0
   -1.1316    1.1451    0.6592 C   0  0  0  0  0  0  0  0  0  0  0  0
   -2.4653    1.3441    0.2987 C   0  0  0  0  0  0  0  0  0  0  0  0
   -3.1930    0.3084   -0.2844 C   0  0  0  0  0  0  0  0  0  0  0  0
   -2.5874   -0.9264   -0.5094 C   0  0  0  0  0  0  0  0  0  0  0  0
   -1.2538   -1.1272   -0.1496 C   0  0  0  0  0  0  0  0  0  0  0  0
    3.5122   -1.2066    0.3089 H   0  0  0  0  0  0  0  0  0  0  0  0
    3.6020    0.4634    0.9033 H   0  0  0  0  0  0  0  0  0  0  0  0
    3.9801    0.1025   -0.7898 H   0  0  0  0  0  0  0  0  0  0  0  0
    1.7259    1.1018   -0.6275 H   0  0  0  0  0  0  0  0  0  0  0  0
    1.6368   -0.5551   -1.2172 H   0  0  0  0  0  0  0  0  0  0  0  0
    1.1697    0.2978    1.7019 H   0  0  0  0  0  0  0  0  0  0  0  0
    1.0811   -1.3505    1.1152 H   0  0  0  0  0  0  0  0  0  0  0  0
   -0.5747    1.9638    1.1091 H   0  0  0  0  0  0  0  0  0  0  0  0
   -2.9358    2.3083    0.4716 H   0  0  0  0  0  0  0  0  0  0  0  0
   -4.2311    0.4643   -0.5653 H   0  0  0  0  0  0  0  0  0  0  0  0
   -3.1532   -1.7335   -0.9670 H   0  0  0  0  0  0  0  0  0  0  0  0
   -0.7930   -2.0946   -0.3354 H   0  0  0  0  0  0  0  0  0  0  0  0
  1  2  1  0
  2  3  1  0
  3  4  1  0
  4  5  2  0
  5  6  1  0
  6  7  2  0
  7  8  1  0
  8  9  2  0
  9  4  1  0
  1 10  1  0
  1 11  1  0
  1 12  1  0
  2 13  1  0
  2 14  1  0
  3 15  1  0
  3 16  1  0
  5 17  1  0
  6 18  1  0
  7 19  1  0
  8 20  1  0
  9 21  1  0
M  END
$$$$
