19

C     -2.472477   -0.326017    0.600053
C     -1.628153   -0.314114   -0.665466
C     -0.156503   -0.185771   -0.359913
C      0.635296   -1.338622   -0.247238
C      1.996109   -1.241332    0.049696
C      2.580743    0.008825    0.242229
C      1.805786    1.163812    0.140745
C      0.446456    1.060575   -0.156038
O     -0.320727    2.187851   -0.250218
H     -2.350774    0.600674    1.170743
H     -2.195989   -1.160851    1.253000
H     -3.532162   -0.430420    0.346449
H     -1.807925   -1.236363   -1.231884
H     -1.948084    0.503119   -1.322838
H      0.192795   -2.321972   -0.390072
H      2.598506   -2.142356    0.131977
H      3.640018    0.082486    0.473690
H      2.275404    2.129728    0.296847
H      0.241680    2.960747   -0.081759
