24

C      3.842654   -0.108424   -0.127158
C      2.348467   -0.102321   -0.001400
C      1.571087    0.727941   -0.814636
C      0.176745    0.711124   -0.719851
C     -0.471049   -0.143941    0.183023
C      0.313247   -0.984844    0.984954
C      1.707604   -0.968018    0.890148
C     -1.983913   -0.180471    0.303759
C     -2.545441    1.169313    0.757605
C     -2.641307   -0.633296   -1.002312
H      4.314120   -0.362286    0.828097
H      4.214167    0.879336   -0.419642
H      4.151882   -0.840021   -0.879935
H      2.045634    1.396457   -1.529294
H     -0.398880    1.372883   -1.362689
H     -0.155679   -1.665630    1.691934
H      2.289780   -1.636872    1.519865
H     -2.255033   -0.916153    1.072704
H     -2.370898    1.956419    0.015995
H     -3.626443    1.100903    0.920970
H     -2.083817    1.488900    1.698557
H     -2.249550   -1.605653   -1.321181
H     -3.724350   -0.734442   -0.873054
H     -2.469024    0.079095   -1.816460
