10

C      0.682459   -0.145611    0.472731
C     -0.734485   -0.644504    0.218423
O     -1.668495    0.339137    0.660213
O      0.865628    1.082827   -0.233594
H      0.834489    0.056648    1.537394
H      1.421656   -0.871757    0.123241
H     -0.905773   -0.805293   -0.850493
H     -0.927131   -1.576289    0.756863
H     -1.339285    1.180552    0.285756
H      1.770937    1.384289   -0.040725
