20

C     -3.235727   -0.023331   -0.527282
C     -2.011005    0.073260    0.368394
C     -0.717177   -0.008114   -0.441293
C      0.511996    0.089383    0.462950
C      1.805231    0.008123   -0.345637
C      3.020173    0.103321    0.536923
O      3.052532    0.229949    1.748428
O      4.162746    0.031823   -0.174637
H     -3.253555    0.792608   -1.256844
H     -4.149437    0.037029    0.072219
H     -3.249186   -0.972504   -1.072466
H     -2.044694    1.018358    0.922797
H     -2.040348   -0.737019    1.106158
H     -0.694778    0.801993   -1.180411
H     -0.690432   -0.953358   -0.997054
H      0.489831   -0.717927    1.205741
H      0.485497    1.032650    1.022882
H      1.843119    0.829697   -1.069429
H      1.847514   -0.945098   -0.884039
H      4.867701    0.104310    0.502599
