14

C     -1.910789    0.037620    0.012639
C     -1.190569    1.227330    0.134073
C      0.205200    1.204033    0.125282
C      0.873941   -0.016516   -0.005708
C      0.154915   -1.208854   -0.127425
C     -1.239843   -1.179151   -0.117963
C      2.350335   -0.035491   -0.014417
O      2.990516   -1.073531   -0.126144
H     -2.998195    0.058083    0.019734
H     -1.719330    2.172143    0.235518
H      0.754423    2.136807    0.220566
H      0.677159   -2.157921   -0.229293
H     -1.802758   -2.104589   -0.212410
H      2.854996    0.940037    0.085548
