20

C      3.305829   -0.341012    0.422197
C      1.853377   -0.137834    0.105367
C      0.866936   -0.814239    0.832567
C     -0.489262   -0.603624    0.560923
C     -0.874554    0.297288   -0.438021
C      0.111524    0.985664   -1.155830
C      1.465213    0.773406   -0.882467
C     -2.307689    0.558728   -0.767092
O     -2.599156    1.368452   -1.645323
C     -3.377231   -0.182430   -0.008136
H      3.488087   -1.358802    0.782879
H      3.924072   -0.197562   -0.470225
H      3.623793    0.369541    1.191299
H      1.149628   -1.512849    1.617812
H     -1.220305   -1.153206    1.146034
H     -0.169568    1.695105   -1.932371
H      2.213047    1.325172   -1.448355
H     -3.274273   -1.259694   -0.161935
H     -3.329824    0.067649    1.054839
H     -4.359643    0.120245   -0.384149
