22

C     -3.574583    0.115966    0.934861
C     -3.612942    0.435363   -0.423973
C     -2.428790    0.502080   -1.160141
C     -1.210266    0.248671   -0.532770
C     -1.172094   -0.069410    0.820510
C     -2.352020   -0.137120    1.559291
O      0.003425   -0.325132    1.474003
C      1.147255   -0.249734    0.715828
C      2.372921   -0.502681    1.338442
C      3.559147   -0.437470    0.607947
C      3.524611   -0.118092   -0.752265
C      2.301578    0.137667   -1.387973
C      1.112344    0.070069   -0.646093
O     -0.074956    0.325538   -1.294115
Cl     2.234167    0.535878   -3.074657
Cl     5.036792   -0.056868   -1.589265
Cl     2.464416   -0.900808    3.015634
H     -4.497604    0.064282    1.507341
H     -4.565785    0.632359   -0.909434
H     -2.457100    0.750505   -2.217587
H     -2.320654   -0.385770    2.616561
H      4.510141   -0.635294    1.097757
