15

C      2.394783    0.357503   -0.140097
C      1.140976   -0.481531   -0.286119
O      0.020953    0.310232    0.102124
C     -1.201500   -0.414587   -0.008870
C     -2.337358    0.492741    0.419985
H      3.281997   -0.213052   -0.428581
H      2.333069    1.254955   -0.764500
H      2.513445    0.696722    0.894290
H      1.208579   -1.366867    0.355582
H      1.025523   -0.800341   -1.327848
H     -1.167310   -1.298966    0.636788
H     -1.350365   -0.732444   -1.046644
H     -2.372547    1.389434   -0.207560
H     -3.298075   -0.025003    0.350217
H     -2.192170    0.831203    1.451232
