24

C      3.994016   -0.130818   -0.403993
C      2.533496    0.142522   -0.199825
C      2.075081    1.449968   -0.019781
C      0.710824    1.705485    0.138852
C     -0.224895    0.660001    0.110537
C     -1.600684    0.901717    0.268769
C     -2.529268   -0.147745    0.244582
C     -2.073780   -1.451575    0.033552
C     -0.709535   -1.707077   -0.125213
C      0.227162   -0.662802   -0.086540
C      1.602960   -0.904529   -0.244670
C     -3.996125    0.133423    0.381674
H      4.235124   -0.098295   -1.470915
H      4.607674    0.609470    0.120065
H      4.265734   -1.115256   -0.008695
H      2.776326    2.281075   -0.000436
H      0.382540    2.732243    0.283061
H     -1.953935    1.920969    0.413386
H     -2.777131   -2.280080   -0.008087
H     -0.382476   -2.732321   -0.282384
H      1.954789   -1.922023   -0.404351
H     -4.518202   -0.720000    0.827031
H     -4.168831    0.995545    1.034457
H     -4.430863    0.340104   -0.601077
