22

C     -3.539262    0.073349   -0.017775
C     -2.854228   -0.185472    1.167465
C     -1.457922   -0.220707    1.174536
C     -0.728086   -0.000405   -0.004004
C     -1.433764    0.261616   -1.188816
C     -2.830108    0.296945   -1.195983
C      0.741487   -0.025137    0.003441
C      1.443513    1.194499   -0.036513
C      2.840246    1.226772   -0.028323
C      3.563497    0.038707    0.018839
C      2.890217   -1.181504    0.056790
C      1.490634   -1.215960    0.048844
Cl     0.733949   -2.772736    0.081547
H     -4.625792    0.098068   -0.023642
H     -3.405409   -0.362612    2.087214
H     -0.937600   -0.424949    2.108076
H     -0.894483    0.433282   -2.118091
H     -3.362822    0.495848   -2.122138
H      0.894155    2.134356   -0.069182
H      3.360650    2.181088   -0.057657
H      4.650360    0.061283    0.025059
H      3.460769   -2.106330    0.090313
