19

C      2.502051    0.135978    0.070908
C      1.003029    0.132113   -0.010194
C      0.306093    1.209667   -0.413760
C     -1.193370    1.257371   -0.472099
C     -1.861902    0.100299    0.270800
C     -1.152376   -1.218161   -0.014908
C      0.322587   -1.154714    0.391031
H      2.920705   -0.625131   -0.595361
H      2.927734    1.102854   -0.217321
H      2.826487   -0.079762    1.094015
H      0.827494    2.115365   -0.715333
H     -1.543881    2.204238   -0.045862
H     -1.497985    1.247099   -1.525420
H     -1.843016    0.296465    1.350525
H     -2.915837    0.033425   -0.021702
H     -1.646892   -2.036258    0.520905
H     -1.228660   -1.447258   -1.085607
H      0.405377   -1.265194    1.479436
H      0.842363   -2.008396   -0.060054
