19

C     -3.107369    0.398105   -0.197898
C     -1.673377    0.818046    0.069929
C     -0.696812   -0.331525   -0.141322
O      0.620902    0.146221    0.129706
C      1.600860   -0.884938   -0.048188
C      2.970912   -0.287072    0.252178
O      3.232172    0.789926   -0.646672
H     -3.229129    0.054355   -1.230035
H     -3.410385   -0.412503    0.472469
H     -3.785911    1.241965   -0.038741
H     -1.581229    1.194892    1.095646
H     -1.402342    1.655474   -0.584189
H     -0.932211   -1.159494    0.537187
H     -0.750462   -0.689822   -1.175767
H      1.393375   -1.717604    0.631919
H      1.563127   -1.232392   -1.086615
H      3.006862    0.115687    1.269223
H      3.759622   -1.035203    0.135308
H      2.421395    1.335884   -0.628508
