14

C     -2.023689   -0.088402   -0.345347
C     -0.769178   -0.229236    0.501056
C      0.478786    0.183987   -0.274379
C      1.723283    0.046074    0.560015
O      1.807896   -0.338406    1.713206
O      2.826861    0.410496   -0.122793
H     -1.967987   -0.720366   -1.237452
H     -2.165817    0.948396   -0.666565
H     -2.904846   -0.389606    0.229757
H     -0.869952    0.386080    1.403218
H     -0.673769   -1.268777    0.837089
H      0.391704    1.229955   -0.588590
H      0.590592   -0.447723   -1.162526
H      3.556115    0.277530    0.518591
