15

C     -2.199388    0.021532   -0.196832
C     -0.797038    0.581486   -0.373439
C      0.267230   -0.461817   -0.045545
C      1.672888    0.095019   -0.221173
O      2.612909   -0.921471    0.098325
H     -2.945570    0.785399   -0.436915
H     -2.365753   -0.835370   -0.857435
H     -2.365220   -0.302765    0.835488
H     -0.674417    1.455618    0.276599
H     -0.674948    0.925967   -1.406938
H      0.143713   -1.344671   -0.685298
H      0.144239   -0.819337    0.984515
H      1.841612    0.947085    0.445004
H      1.841076    0.412159   -1.255297
H      3.498668   -0.538832   -0.022335
