18

C      2.308710    0.984017    0.332974
C      2.494766   -0.387624    0.187617
C      1.395139   -1.223370   -0.014541
C      0.094520   -0.696817   -0.073851
C     -1.022536   -1.523545   -0.276567
C     -2.308712   -0.984018   -0.332972
C     -2.494767    0.387622   -0.187604
C     -1.395138    1.223370    0.014546
C     -0.094519    0.696818    0.073845
C      1.022534    1.523546    0.276563
H      3.164080    1.635690    0.490401
H      3.495664   -0.808824    0.231354
H      1.560451   -2.292511   -0.125932
H     -0.897133   -2.597643   -0.392274
H     -3.164079   -1.635694   -0.490407
H     -3.495662    0.808826   -0.231357
H     -1.560448    2.292514    0.125927
H      0.897130    2.597643    0.392278
