17

C     -2.055286   -1.520805   -0.074244
O     -0.721088   -1.274938    0.318346
P     -0.003285    0.004487   -0.345513
O     -0.032070    0.043802   -1.840907
O     -0.716984    1.249633    0.384640
C     -0.283511    2.537085   -0.001663
O      1.467655   -0.015100    0.309338
C      2.344625   -1.024239   -0.145882
H     -2.098011   -1.739652   -1.144560
H     -2.429897   -2.386292    0.477998
H     -2.684997   -0.656727    0.154179
H     -0.506661    2.707627   -1.058269
H     -0.816400    3.280912    0.595935
H      0.790041    2.646283    0.174128
H      2.549043   -0.891993   -1.211724
H      1.911950   -2.012766    0.030041
H      3.284876   -0.947315    0.405827
