12

C     -0.060506    1.443567   -0.121966
C      1.175273    0.796566   -0.076546
C      1.227398   -0.593027    0.040907
C      0.056336   -1.344076    0.113560
C     -1.173562   -0.691405    0.067614
C     -1.237904    0.697687   -0.049703
Cl    -2.628529   -1.606214    0.156328
Cl     2.753931   -1.385672    0.096455
H     -0.105882    2.526147   -0.213433
H      2.091727    1.378789   -0.132933
H      0.101656   -2.425301    0.204913
H     -2.199939    1.202940   -0.085196
