15

C      2.113954   -0.448066   -0.079420
C      0.727445   -0.386358    0.541494
C     -0.319292    0.086747   -0.469027
C     -1.705068    0.143881    0.167734
S     -2.943046    0.700331   -1.038463
H      2.135114   -1.144585   -0.923656
H      2.427171    0.537412   -0.438658
H      2.845572   -0.788331    0.660082
H      0.458219   -1.379690    0.919123
H      0.748637    0.293230    1.401441
H     -0.326722   -0.597613   -1.326853
H     -0.035079    1.078232   -0.843749
H     -2.001162   -0.844308    0.533903
H     -1.712227    0.836015    1.015810
H     -2.413513    1.913104   -1.256486
