23

C      2.785271   -0.323282    1.338959
O      2.420207   -0.399345   -0.044274
C      1.051525   -0.488218   -0.171926
C      0.360876    0.698464   -0.451004
C     -1.027032    0.695417   -0.613281
C     -1.712038   -0.535029   -0.544277
C     -1.014624   -1.733112   -0.294831
C      0.377712   -1.715414   -0.126179
Cl     1.306638   -3.171976    0.027713
C     -1.773272   -2.997000   -0.211787
O     -1.557941   -3.826442    0.662255
Cl    -3.443916   -0.541930   -0.735668
O     -1.785512    1.801635   -0.901811
C     -1.371196    3.032471   -0.318449
O      1.093344    1.847572   -0.601698
H      2.458298   -1.205950    1.897501
H      2.380462    0.585102    1.798498
H      3.876796   -0.272972    1.392245
H     -2.576493   -3.147716   -0.952135
H     -2.252666    3.677978   -0.251425
H     -0.982195    2.902865    0.697454
H     -0.647084    3.537449   -0.964135
H      2.032842    1.579432   -0.631744
