12

C     -1.995153   -0.135585   -0.002290
C     -0.505347   -0.146086   -0.012242
C      0.362624    0.921555    0.094020
C      1.727580    0.515310    0.043510
C      1.854203   -0.848135   -0.099535
S      0.335084   -1.629552   -0.172055
H     -2.378204    0.884524    0.106452
H     -2.392884   -0.544466   -0.936959
H     -2.382367   -0.729130    0.832425
H      0.035750    1.948729    0.203161
H      2.573057    1.188860    0.108777
H      2.765657   -1.426023   -0.165264
