19

C      2.322899   -0.915428    0.290391
C      1.030966   -0.170593    0.565515
C      0.854645    1.072758   -0.290290
C     -0.648498    1.197114   -0.334464
C     -1.069943   -0.258580   -0.447389
O     -0.092835   -1.022199    0.281349
C     -2.454333   -0.531783    0.107936
H      2.365612   -1.257870   -0.749328
H      2.386413   -1.811483    0.916921
H      3.194397   -0.285028    0.490085
H      0.974953    0.091473    1.628844
H      1.350955    1.951582    0.130595
H      1.241632    0.912770   -1.304017
H     -1.009407    1.809160   -1.165693
H     -1.009651    1.641554    0.600970
H     -1.019909   -0.586495   -1.492595
H     -2.695921   -1.596480    0.021080
H     -3.216147    0.045534   -0.424170
H     -2.505828   -0.286005    1.174260
