20

C      2.645262   -1.005863   -0.230367
C      1.461063   -0.090418   -0.115171
C      1.650226    1.288898    0.049638
C      0.554159    2.138491    0.188407
C     -0.726515    1.602903    0.172250
C     -0.945520    0.228914    0.023420
C      0.156855   -0.616338   -0.114726
O     -2.263484   -0.151112    0.033120
C     -2.525690   -1.540739   -0.123273
O     -1.786750    2.457812    0.311077
H      2.942308   -1.359174    0.761806
H      2.409703   -1.870573   -0.859617
H      3.494638   -0.491146   -0.691703
H      2.653067    1.709545    0.070064
H      0.695705    3.207821    0.311079
H      0.033734   -1.688891   -0.224121
H     -3.610815   -1.680057   -0.100468
H     -2.098659   -2.118242    0.703252
H     -2.163739   -1.904596   -1.090569
H     -2.575549    1.882766    0.274997
