24

C     -2.232644    0.496737   -0.598953
C     -1.721344   -0.932864   -0.564347
C     -0.327538   -0.938338    0.090604
C     -0.224537    0.452898    0.860496
C     -1.566394    1.159980    0.593782
Cl    -1.557313    2.912797    0.436318
C      1.212353    0.952821    0.446194
C      2.137273   -0.033979    1.160005
C      2.050788   -1.202186    0.513519
C      1.066789   -1.013278   -0.641831
C      1.434255    0.454974   -1.014029
Cl     3.139430    0.664868   -1.621484
Cl     0.422619    1.217918   -2.257413
Cl     1.264146   -2.200199   -1.918103
Cl     2.734841   -2.686083    0.964877
Cl     2.954895    0.286558    2.609958
Cl     1.621777    2.630194    0.755044
Cl    -1.900407   -1.720865   -2.127756
H     -3.324959    0.519841   -0.494561
H     -2.022039    1.002960   -1.541917
H     -2.387175   -1.489949    0.108025
H     -0.358839   -1.751248    0.833389
H     -0.210211    0.256262    1.944315
H     -2.205765    0.960181    1.463869
