25

C     -1.826723   -1.316349   -0.608195
C     -1.282248   -0.236455    0.351645
C     -2.246414    0.969078    0.276744
C     -1.332357   -0.771391    1.799142
C      0.170773    0.104496   -0.023927
C      1.161888   -0.898885   -0.000323
C      2.491978   -0.624829   -0.335508
C      2.851108    0.664197   -0.701060
C      1.903175    1.675143   -0.735243
C      0.573637    1.397887   -0.399448
O      4.133918    0.979708   -1.035920
H     -2.873510   -1.552889   -0.384125
H     -1.776587   -0.979234   -1.650369
H     -1.264942   -2.254263   -0.538701
H     -3.266775    0.676609    0.552491
H     -1.945109    1.770003    0.961948
H     -2.293837    1.385589   -0.736193
H     -2.362450   -0.989524    2.104506
H     -0.923280   -0.038612    2.504817
H     -0.760265   -1.697938    1.918860
H      0.906930   -1.917993    0.282734
H      3.222293   -1.426715   -0.303959
H      2.193785    2.681635   -1.022765
H     -0.131146    2.223372   -0.441581
H      4.676160    0.177362   -0.965650
