23

C      1.744185   -1.093081   -0.915141
C      1.243887   -0.354328    0.320392
C     -0.013794    0.532465    0.112852
C     -0.378432    1.167737    1.471561
C      0.304627    1.681229   -0.867746
C     -1.228097   -0.255179   -0.449571
C     -1.678170   -1.455187    0.375057
H      2.633631   -1.678997   -0.660010
H      2.026016   -0.401391   -1.713679
H      0.994772   -1.788314   -1.303094
H      1.051223   -1.093577    1.107789
H      2.065560    0.270267    0.695732
H     -1.287746    1.774375    1.394705
H      0.425997    1.821210    1.828797
H     -0.545457    0.408756    2.242819
H      1.183521    2.248865   -0.542014
H      0.500947    1.309379   -1.878674
H     -0.534901    2.382678   -0.937818
H     -1.007319   -0.601203   -1.466983
H     -2.083608    0.426395   -0.548078
H     -0.891194   -2.209935    0.455696
H     -2.540120   -1.930652   -0.105025
H     -1.985527   -1.161511    1.382436
