21

C     -3.070090    1.195447    0.846323
C     -2.355745    0.396287   -0.225246
O     -1.217194   -0.228437    0.362786
C     -0.491742   -1.011440   -0.591676
C      0.730086   -1.627353    0.089900
O      1.688283   -0.621091    0.468311
C      2.470042   -0.149060   -0.538193
O      2.424263   -0.514898   -1.704436
C      3.405811    0.896311   -0.014014
H     -3.953503    1.693947    0.437699
H     -2.402671    1.951796    1.272481
H     -3.380809    0.544375    1.670132
H     -2.036053    1.061824   -1.034536
H     -3.028293   -0.367095   -0.631453
H     -1.142763   -1.810474   -0.962929
H     -0.194589   -0.368606   -1.426472
H      1.206662   -2.376462   -0.552921
H      0.428304   -2.128210    1.015914
H      4.031315    1.265588   -0.831768
H      4.054162    0.463318    0.751824
H      2.834524    1.734234    0.393286
