38

C     -2.625511   -1.625762    1.718997
C     -1.900204   -1.949126    0.419525
C     -1.628408   -0.711008   -0.409234
C     -2.710118   -0.129163   -1.091689
C     -2.540271    1.023633   -1.852402
C     -1.285690    1.618967   -1.940647
C     -0.176602    1.068283   -1.276768
C     -0.353184   -0.109449   -0.515997
N      0.757924   -0.696935    0.135762
C      0.993323   -0.319489    1.516282
O      2.086624    0.593303    1.544665
C      2.480655    0.885600    2.876450
C      1.521410   -1.719776   -0.419088
O      2.366505   -2.336532    0.239916
C      1.298250   -2.077385   -1.880198
Cl     0.327693   -3.560543   -1.983486
C      1.154130    1.776984   -1.410964
C      1.213567    3.049528   -0.576836
H     -3.600371   -1.163739    1.531185
H     -2.793923   -2.541871    2.294092
H     -2.042990   -0.937961    2.339988
H     -0.977506   -2.487199    0.654992
H     -2.504328   -2.646948   -0.174029
H     -3.700136   -0.577797   -1.030839
H     -3.388103    1.461174   -2.373626
H     -1.173202    2.523618   -2.535494
H      1.228223   -1.212803    2.106872
H      0.106030    0.164496    1.940332
H      2.829091   -0.020445    3.381565
H      3.304519    1.603461    2.842053
H      1.651203    1.332680    3.432949
H      2.271342   -2.269633   -2.342858
H      0.810589   -1.293476   -2.459354
H      1.986871    1.120928   -1.139901
H      1.316338    2.025497   -2.467665
H      1.018790    2.846303    0.480803
H      2.203358    3.509403   -0.660270
H      0.474112    3.783183   -0.915085
