13

C     -0.989750    0.677572    0.483521
C      0.247855    1.300271    0.660012
C      1.417437    0.691176    0.190443
C      1.346115   -0.547467   -0.458844
C      0.107378   -1.169013   -0.634582
C     -1.047235   -0.552615   -0.163000
O     -2.232350   -1.196692   -0.357401
Cl     2.747453   -1.357381   -1.064035
Cl     2.911538    1.520805    0.444893
H     -1.887685    1.163466    0.853734
H      0.296227    2.262268    1.165158
H      0.035705   -2.130254   -1.136420
H     -2.952687   -0.662135    0.016522
