16

C     -2.351668    0.105341    0.361389
C     -1.087577   -0.336174   -0.358791
C      0.167302    0.181079    0.343326
C      1.425417   -0.267902   -0.387613
N      2.616530    0.268556    0.346285
O      3.093876   -0.441525    1.239985
O      3.030142    1.384636    0.008554
H     -3.236513   -0.275753   -0.157963
H     -2.370908   -0.273632    1.388201
H     -2.422243    1.197188    0.396392
H     -1.114823    0.031618   -1.391159
H     -1.063767   -1.431217   -0.404734
H      0.184927   -0.181627    1.379069
H      0.134023    1.276886    0.395558
H      1.471840    0.120499   -1.410111
H      1.523441   -1.357972   -0.413140
