22

C      3.564370    0.086560   -0.145388
C      2.786344    0.367365   -1.265107
C      1.389500    0.333766   -1.179138
C      0.738169    0.017921    0.031152
C      1.549471   -0.262399    1.150080
C      2.946139   -0.228154    1.061549
Cl     0.865043   -0.663328    2.690994
C     -0.738172   -0.017926    0.123375
C     -1.459845   -1.202691   -0.130224
C     -2.856611   -1.235327   -0.042639
C     -3.564370   -0.086555    0.299928
C     -2.875875    1.096124    0.555269
C     -1.479129    1.131321    0.468347
Cl    -0.704592    2.645255    0.802568
Cl    -0.660609   -2.678410   -0.562751
Cl     0.500162    0.696468   -2.621751
H      4.649308    0.112907   -0.213154
H      3.272411    0.612937   -2.206754
H      3.556848   -0.447093    1.934683
H     -3.397482   -2.157908   -0.241561
H     -4.649307   -0.112900    0.367708
H     -3.431774    1.992068    0.822716
