25

C     -4.202568    0.156044   -0.560709
C     -3.005550   -0.057856    0.351925
C     -1.687785    0.119968   -0.401795
C     -0.486252   -0.096030    0.519749
C      0.832557    0.081906   -0.234425
C      2.033738   -0.133994    0.686716
C      3.348814    0.043419   -0.065223
C      4.555335   -0.163659    0.818373
O      4.508640   -0.444073    2.011273
H     -5.134025    0.024100   -0.001344
H     -4.199326    1.166536   -0.981698
H     -4.198452   -0.561106   -1.387762
H     -3.056187   -1.065282    0.781149
H     -3.057058    0.652833    1.184976
H     -1.644051    1.127724   -0.832593
H     -1.643183   -0.590313   -1.236410
H     -0.530080   -1.103844    0.950332
H     -0.530951    0.614394    1.354201
H      0.876390    1.089736   -0.664973
H      0.877263   -0.628554   -1.068849
H      1.989206    0.573127    1.524453
H      1.990080   -1.140313    1.121712
H      3.417137    1.053242   -0.483944
H      3.418015   -0.674058   -0.889950
H      5.528294   -0.043949    0.311172
