14

C     -1.971715   -0.134878   -0.048328
C     -0.585779    0.292799   -0.504245
C      0.501389   -0.248941    0.423207
C      1.881025    0.184680   -0.042196
Br     3.236084   -0.523931    1.162691
H     -2.062454   -1.225756   -0.039129
H     -2.185327    0.236505    0.959035
H     -2.733339    0.263614   -0.725854
H     -0.416620   -0.066627   -1.526017
H     -0.538825    1.387684   -0.533280
H      0.443537   -1.344259    0.455500
H      0.321641    0.106377    1.445729
H      2.117031   -0.199563   -1.038316
H      1.993352    1.272295   -0.033601
