30

C     -5.272114    0.155790    0.619152
C     -4.012295   -0.604522    0.236674
C     -2.760545    0.249842    0.435166
C     -1.495553   -0.518593    0.049319
C     -0.242820    0.336330    0.247929
C      1.022168   -0.432163   -0.137939
C      2.274868    0.422672    0.060645
C      3.537860   -0.344457   -0.324562
C      4.789395    0.499658   -0.129730
O      5.924501   -0.268594   -0.504251
H     -6.154867   -0.473697    0.469475
H     -5.388588    1.055489    0.006525
H     -5.244247    0.457268    1.671136
H     -3.942773   -1.514068    0.844618
H     -4.086321   -0.919149   -0.810816
H     -2.693506    0.565315    1.483524
H     -2.837047    1.160208   -0.171835
H     -1.419141   -1.428818    0.656490
H     -1.562699   -0.833853   -0.999065
H     -0.319225    1.246549   -0.359243
H     -0.175667    0.651584    1.296309
H      1.098557   -1.342394    0.469233
H      0.955001   -0.747424   -1.186325
H      2.198533    1.332910   -0.546499
H      2.342086    0.737957    1.109006
H      3.479665   -0.671483   -1.370298
H      3.622055   -1.261612    0.271789
H      4.755709    1.398162   -0.754088
H      4.900681    0.797330    0.917778
H      6.706331    0.293762   -0.369950
