30

C     -5.030644    0.212578   -0.810403
C     -3.923559    0.617619    0.149702
C     -2.559341    0.119046   -0.326216
C     -1.448545    0.528555    0.642272
C     -0.083155    0.029684    0.166154
C      1.026522    0.440434    1.136415
C      2.377638   -0.046695    0.676123
C      3.167862    0.743526   -0.169135
C      4.410949    0.284922   -0.608071
C      4.873043   -0.968288   -0.210424
C      4.091861   -1.764910    0.624643
C      2.848520   -1.307945    1.064563
H     -5.997158    0.579273   -0.450823
H     -4.858042    0.630916   -1.807167
H     -5.092715   -0.876619   -0.900582
H     -4.142917    0.210633    1.143657
H     -3.909532    1.709854    0.242064
H     -2.580045   -0.973508   -0.420917
H     -2.346673    0.525640   -1.322471
H     -1.661252    0.121616    1.638338
H     -1.427830    1.621106    0.736583
H      0.126863    0.432912   -0.832651
H     -0.106000   -1.062996    0.066951
H      1.050699    1.532369    1.243554
H      0.819030    0.044120    2.138546
H      2.818048    1.721601   -0.491257
H      5.018022    0.905404   -1.261852
H      5.840653   -1.324897   -0.552950
H      4.449996   -2.743626    0.932576
H      2.247702   -1.942326    1.712128
