23

C      3.002886   -1.529996   -0.316283
O      1.591740   -1.710387   -0.236626
C      0.833463   -0.584854   -0.029022
C      1.321193    0.709344    0.115828
C      0.434007    1.774192    0.343004
C     -0.948900    1.543429    0.415760
C     -1.456467    0.238584    0.249409
C     -0.551234   -0.812260    0.044611
O     -0.980200   -2.112362   -0.064402
O     -2.818613    0.103206    0.355654
C     -3.427263   -0.955615   -0.373607
Cl    -2.059062    2.853388    0.692857
C      1.016281    3.126601    0.500080
O      2.227002    3.311788    0.422735
H      3.455072   -2.512191   -0.484007
H      3.270903   -0.890283   -1.163515
H      3.402888   -1.134643    0.623157
H      2.385898    0.920922    0.065122
H     -0.170239   -2.650463   -0.169216
H     -3.394660   -1.886385    0.199921
H     -4.482110   -0.696630   -0.509796
H     -2.990821   -1.077738   -1.370817
H      0.338235    3.972351    0.689153
