20

C      2.715061    0.242805   -0.551828
C      2.088839    1.481524   -0.532641
C      0.718674    1.565985   -0.271165
C     -0.064147    0.414810   -0.017602
C      0.589979   -0.843852   -0.062982
C      1.969569   -0.911934   -0.321378
C     -0.145490   -2.021003    0.135187
C     -1.519152   -1.974212    0.351704
C     -2.170139   -0.745404    0.401918
C     -1.455817    0.455090    0.279986
N     -2.192768    1.660022    0.260174
H      3.780046    0.171923   -0.755262
H      2.661064    2.385251   -0.724500
H      0.262882    2.551808   -0.280759
H      2.475701   -1.874487   -0.353533
H      0.345810   -2.990877    0.097529
H     -2.083819   -2.894709    0.471277
H     -3.246992   -0.728404    0.547909
H     -1.653198    2.460583    0.569873
H     -3.076103    1.595082    0.756093
