14

C      2.174015    0.082666    0.035950
C      0.781265    0.563208   -0.254153
O      0.544515    1.635346   -0.799290
C     -0.316234   -0.355457    0.166695
C     -1.620723    0.207018    0.678947
C     -1.572972   -0.464978   -0.663418
H      2.356133   -0.858511   -0.489045
H      2.299154   -0.056639    1.112767
H      2.897980    0.825567   -0.310195
H      0.022526   -1.273717    0.638431
H     -2.115635   -0.311835    1.491284
H     -1.747140    1.284643    0.697769
H     -1.667404    0.162549   -1.543705
H     -2.035478   -1.439861   -0.762040
