19

C     -1.645898    0.207708   -0.012978
C     -1.057321   -1.144709   -0.407120
C      0.304734   -1.373423    0.239704
C      1.271970   -0.231045   -0.063369
C      0.681311    1.120745    0.335198
C     -0.680588    1.352318   -0.311011
O      2.480333   -0.455880    0.654538
H     -1.884383    0.202493    1.057796
H     -2.587617    0.370422   -0.549140
H     -1.744828   -1.945884   -0.113592
H     -0.955713   -1.194086   -1.498238
H      0.731431   -2.322232   -0.107370
H      0.187953   -1.481197    1.326070
H      1.513539   -0.231775   -1.133013
H      0.590615    1.176581    1.427856
H      1.371418    1.925272    0.053895
H     -1.104849    2.296039    0.049689
H     -0.556802    1.451403   -1.396448
H      3.084697    0.277250    0.447532
