21

C      3.160459   -0.318809   -0.031173
C      1.702571    0.030732    0.007334
C      1.292439    1.365011   -0.022789
C     -0.065881    1.686132   -0.018189
C     -1.043177    0.680352    0.006488
C     -0.639831   -0.669196    0.019916
C      0.731148   -0.977811    0.015682
C     -1.645537   -1.787691    0.037229
C     -2.496885    1.065665    0.009283
H      3.489994   -0.435496   -1.068151
H      3.762792    0.461641    0.445644
H      3.352524   -1.251742    0.509173
H      2.027411    2.166001   -0.049087
H     -0.356694    2.734198   -0.036598
H      1.047633   -2.019408    0.019555
H     -1.157529   -2.768179    0.035886
H     -2.263830   -1.728933    0.938507
H     -2.285317   -1.737925   -0.849498
H     -2.993318    0.682024   -0.887609
H     -2.624760    2.153392    0.017925
H     -2.994214    0.670042    0.900472
