32

C     -3.399735    3.029800    1.010980
C     -2.396759    2.517712   -0.002344
O     -2.333282    1.104916    0.100832
P     -1.119760    0.330680   -0.644947
S     -1.053436    0.519958   -2.575240
O     -1.316945   -1.168856   -0.064059
C     -2.501196   -1.872479   -0.399225
C     -2.555096   -3.142345    0.425226
O      0.153524    0.857281    0.199670
C      1.426210    0.364989    0.141489
C      1.795082   -0.800577   -0.528841
C      3.130418   -1.219976   -0.522391
C      4.092451   -0.466861    0.162992
C      3.725786    0.700539    0.842321
C      2.389928    1.109274    0.828677
N      5.493174   -0.906998    0.172616
O      5.771280   -1.958406   -0.421347
O      6.314474   -0.201819    0.776049
H     -4.386719    2.590013    0.833288
H     -3.484224    4.118928    0.960687
H     -3.102061    2.744763    2.025508
H     -2.714374    2.793054   -1.012333
H     -1.412738    2.955121    0.192644
H     -3.378792   -1.253626   -0.189064
H     -2.488027   -2.121427   -1.464366
H     -2.551463   -2.907751    1.494838
H     -3.453978   -3.720454    0.193581
H     -1.674943   -3.764819    0.232788
H      1.072285   -1.411659   -1.061525
H      3.399759   -2.131572   -1.053001
H      4.458295    1.297122    1.382055
H      2.100860    2.015475    1.357052
