20

C     -3.408982   -0.034101   -0.455041
C     -2.187635    0.021998    0.448648
C     -0.891138   -0.020998   -0.358822
C      0.333695    0.035544    0.552326
C      1.623962   -0.006169   -0.232705
O      1.714683   -0.076541   -1.449818
O      2.679163    0.047049    0.629908
C      3.954626    0.013616   -0.011689
H     -3.419587   -0.957141   -1.043448
H     -3.424878    0.814587   -1.146282
H     -4.324935   -0.002112    0.143222
H     -2.224193    0.940533    1.045857
H     -2.218931   -0.821477    1.148128
H     -0.866242    0.819735   -1.063466
H     -0.860996   -0.937445   -0.961476
H      0.323861   -0.818552    1.238687
H      0.318541    0.963238    1.135269
H      4.074384    0.878119   -0.672181
H      4.079754   -0.920768   -0.567770
H      4.724847    0.060885    0.763090
