23

C      4.249908    0.458416    0.227837
C      2.986280   -0.347513    0.480454
C      1.749439    0.366993   -0.057970
C      0.487421   -0.426134    0.188173
O      0.426296   -1.511524    0.747268
O     -0.580522    0.258729   -0.312224
C     -1.839743   -0.403717   -0.134004
C     -2.925987    0.476943   -0.739164
C     -4.302914   -0.146181   -0.597195
H      4.196496    1.435656    0.718222
H      4.404884    0.619303   -0.843811
H      5.122766   -0.071811    0.621391
H      2.877929   -0.522746    1.557557
H      3.084611   -1.332410    0.008325
H      1.641893    1.340969    0.432471
H      1.851434    0.520102   -1.138193
H     -2.026894   -0.551392    0.936109
H     -1.816513   -1.375566   -0.640899
H     -2.911467    1.461918   -0.257278
H     -2.705879    0.656514   -1.798365
H     -4.349460   -1.114581   -1.105455
H     -5.062154    0.506329   -1.039495
H     -4.557825   -0.298298    0.456453
