30

C     -3.000183    2.203083    0.697432
C     -2.284382    0.947686    0.236599
O     -1.169092    0.734006    1.096189
C     -0.400935   -0.414690    0.721356
O     -1.212197   -1.590294    0.832824
C     -0.437495   -2.781055    0.742881
C     -1.369259   -3.967133    0.898255
O      0.155171   -0.306709   -0.592394
C      1.248498    0.497158   -0.755936
C      1.934192    0.310924   -1.959886
C      3.068187    1.068234   -2.257882
C      3.519660    2.025805   -1.353411
C      2.833081    2.227276   -0.157375
C      1.697529    1.467500    0.140693
H     -3.868646    2.411071    0.066199
H     -3.334264    2.097781    1.734938
H     -2.325381    3.064966    0.665533
H     -2.972668    0.097540    0.287360
H     -1.950642    1.079690   -0.797931
H      0.401643   -0.507770    1.464679
H      0.316230   -2.798225    1.537739
H      0.063776   -2.834186   -0.229392
H     -2.138615   -3.957569    0.119062
H     -1.889876   -3.925067    1.860706
H     -0.816177   -4.908545    0.836852
H      1.583003   -0.432283   -2.671615
H      3.594508    0.912173   -3.195707
H      4.400191    2.620186   -1.582960
H      3.176216    2.984068    0.543815
H      1.177926    1.674379    1.071376
