24

C     -1.741048   -1.448991    0.312349
C     -2.930163   -0.525555    0.475019
C     -2.874057    0.806601    0.274532
C     -1.634010    1.531231   -0.205433
C     -0.637321    0.521226   -0.737245
C     -0.471668   -0.623828    0.251299
C      0.794993   -1.252611   -0.249720
O      1.087104   -2.432691   -0.162467
N      1.545988   -0.202554   -0.749192
C      0.789058    0.938927   -0.951899
O      1.154299    2.044725   -1.313971
S      3.154336   -0.351297   -1.251116
C      4.071760    0.030247    0.280712
Cl     3.735690   -1.171713    1.559706
Cl     5.828659   -0.011057   -0.076326
Cl     3.668119    1.653715    0.907438
H     -1.869943   -2.057953   -0.589736
H     -1.692066   -2.139208    1.162087
H     -3.867356   -0.980946    0.789495
H     -3.763305    1.411377    0.442190
H     -1.210992    2.119069    0.617226
H     -1.904174    2.236803   -0.999179
H     -0.990784    0.143203   -1.709829
H     -0.243120   -0.238721    1.257923
