9

C      1.165324   -0.052920    0.093342
O     -0.082310   -0.304378    0.725705
C     -1.173461    0.022832   -0.124017
H      1.261038    1.008106   -0.156835
H      1.964744   -0.321243    0.789200
H      1.267490   -0.663700   -0.808896
H     -1.146759   -0.585504   -1.033269
H     -1.153210    1.086302   -0.381207
H     -2.102858   -0.189496    0.411171
