17

C      2.298769   -0.735283   -0.063318
C      2.386390    0.636833    0.142767
C      1.220417    1.403364    0.233459
C     -0.040480    0.832167    0.123082
C     -0.123746   -0.561438   -0.086093
C      1.046569   -1.335724   -0.177875
C     -1.397634   -1.134451   -0.196994
C     -2.527071   -0.331113   -0.100098
C     -2.343335    1.023078    0.105270
N     -1.132590    1.612317    0.217341
H      3.201713   -1.336062   -0.134667
H      3.357444    1.116441    0.233724
H      1.295935    2.476041    0.394705
H      0.986500   -2.409456   -0.338956
H     -1.513805   -2.202802   -0.358351
H     -3.523175   -0.750156   -0.182515
H     -3.191901    1.696245    0.188518
