16

C      2.409706   -0.494148   -0.371431
C      1.247663    0.436077   -0.064016
C     -0.094615   -0.266243   -0.246297
C     -1.272966    0.642920    0.055114
O     -1.139987    1.814191    0.406365
C     -2.640417    0.029409   -0.099742
H      2.402090   -1.364166    0.292909
H      2.363971   -0.850512   -1.405477
H      3.360998    0.029475   -0.234420
H      1.303163    1.313182   -0.719824
H      1.340975    0.803663    0.964890
H     -0.157233   -1.131375    0.423150
H     -0.195450   -0.616394   -1.279622
H     -3.407141    0.770817    0.141696
H     -2.779631   -0.299022   -1.132624
H     -2.741126   -0.817873    0.582944
