20

C     -1.940348   -1.536681   -0.596204
C     -1.008808   -0.465811   -0.028712
C      0.399529   -0.649235   -0.613364
C      1.402878    0.351694   -0.038330
O      2.675898    0.066380   -0.613411
N      3.693330    0.929369   -0.137951
O      3.367080    1.783021    0.687950
O      4.791711    0.688319   -0.634062
O     -1.472223    0.827064   -0.424338
N     -2.459973    1.378555    0.430381
O     -2.806361    0.710107    1.404135
O     -2.835378    2.489217    0.062120
H     -2.025011   -1.443646   -1.684721
H     -2.953378   -1.433578   -0.194755
H     -1.579418   -2.541941   -0.357443
H     -0.930045   -0.565431    1.061253
H      0.377571   -0.527270   -1.704429
H      0.760258   -1.668287   -0.424749
H      1.097014    1.373224   -0.293978
H      1.445675    0.234933    1.051523
