22

C     -3.586540    0.113246    0.274766
C     -2.865873    1.280754    0.038525
C     -1.470972    1.237885   -0.068529
C     -0.764264    0.024145    0.058531
C     -1.518109   -1.143488    0.297487
C     -2.912965   -1.098281    0.404179
Cl    -0.760317   -2.692246    0.471338
C      0.710578   -0.022420   -0.054446
C      1.537384    0.135254    1.077737
C      2.930625    0.091438    0.972313
C      3.520915   -0.111200   -0.269714
C      2.736983   -0.270416   -1.406479
C      1.343952   -0.226205   -1.298478
Cl     0.431879   -0.432403   -2.757392
Cl     5.235054   -0.165368   -0.401010
Cl     0.872665    0.391265    2.657433
Cl    -0.652855    2.736892   -0.363122
H     -4.670304    0.147464    0.357800
H     -3.395577    2.225593   -0.062044
H     -3.479389   -2.008514    0.588730
H      3.550787    0.215130    1.856833
H      3.206346   -0.428525   -2.374455
