22

C     -2.858975    1.179803   -0.108564
C     -2.590690    0.027647   -0.844679
C     -1.462236   -0.740700   -0.554359
C     -0.589075   -0.362125    0.474585
C     -0.870750    0.796649    1.210860
C     -2.000101    1.563706    0.919322
C      0.635083   -1.188116    0.784389
C      1.697173   -1.159865   -0.315726
C      2.287284    0.225775   -0.543262
O      3.345172    0.120842   -1.489018
H     -3.738459    1.776796   -0.334458
H     -3.260993   -0.274367   -1.645122
H     -1.268222   -1.638957   -1.136549
H     -0.213064    1.110805    2.018043
H     -2.210841    2.460530    1.495959
H      0.315471   -2.224816    0.950936
H      1.082316   -0.858634    1.730757
H      2.506073   -1.850882   -0.045722
H      1.292588   -1.541078   -1.261720
H      2.695431    0.635898    0.385862
H      1.539277    0.917590   -0.942092
H      3.667538    1.023499   -1.653658
