31

C     -3.724583    0.397120    1.450512
C     -3.244952    0.811770    0.057775
C     -1.730316    0.806794   -0.044181
C     -1.041477    2.000075   -0.292281
C      0.352407    2.010292   -0.387554
C      1.092023    0.827789   -0.238487
C      2.493824    0.820766   -0.331726
C      3.225718   -0.361212   -0.183939
C      2.550384   -1.554650    0.060227
C      1.154365   -1.564366    0.155919
C      0.412035   -0.382474    0.009517
C     -0.990542   -0.378756    0.103597
O      4.580721   -0.212364   -0.300007
C      5.370811   -1.386031   -0.157987
C     -3.884037   -0.066568   -1.001897
O     -4.170583   -1.249366   -0.902186
O     -4.115362    0.592221   -2.157025
H     -4.817216    0.451392    1.513416
H     -3.307097    1.055024    2.220671
H     -3.436806   -0.631003    1.697169
H     -3.620580    1.830947   -0.107249
H     -1.582282    2.936083   -0.416225
H      0.859315    2.953234   -0.581279
H      3.031962    1.746801   -0.522744
H      3.074960   -2.496188    0.181382
H      0.648446   -2.508588    0.346593
H     -1.512763   -1.316634    0.290976
H      5.135699   -2.117158   -0.938536
H      6.420079   -1.098897   -0.276469
H      5.255572   -1.821224    0.840215
H     -4.479725   -0.094828   -2.753376
