23

C     -2.980120   -0.956700    0.524290
C     -1.908057   -0.200322   -0.263759
C     -2.269931    1.283753   -0.335024
C     -0.528686   -0.437133    0.372152
C      0.627114    0.164593   -0.423398
O      1.852061   -0.224235    0.215868
C      2.974133    0.236269   -0.401687
O      2.998107    0.923804   -1.412503
C      4.191795   -0.222905    0.340089
H     -2.760103   -2.029221    0.550519
H     -3.042058   -0.597496    1.557258
H     -3.964918   -0.830796    0.061907
H     -1.897617   -0.600461   -1.285527
H     -1.589043    1.828553   -0.995903
H     -3.282108    1.417840   -0.731909
H     -2.231203    1.749892    0.655312
H     -0.506281   -0.039531    1.395358
H     -0.353487   -1.516274    0.476032
H      0.562542    1.257795   -0.431877
H      0.615604   -0.216216   -1.451202
H      4.175811    0.171626    1.359132
H      4.229829   -1.315065    0.350187
H      5.086614    0.152229   -0.164819
