19

C     -2.116305   -0.936408   -0.265353
C     -1.021173    0.131859   -0.286534
C     -1.283635    1.161564    0.815419
C      0.357695   -0.524818   -0.123419
C      1.520393    0.396256   -0.459507
O      1.377361    1.467480   -1.046662
C      2.890005   -0.095667   -0.068580
H     -3.104858   -0.483129   -0.394795
H     -2.116909   -1.487067    0.681581
H     -1.972117   -1.657431   -1.076955
H     -1.070403    0.644959   -1.255078
H     -2.268378    1.623413    0.685997
H     -1.257636    0.697351    1.807302
H     -0.539070    1.963331    0.798814
H      0.484424   -0.880810    0.905682
H      0.442814   -1.388895   -0.793243
H      3.102818   -1.034542   -0.585531
H      3.643101    0.644591   -0.352674
H      2.931873   -0.242038    1.013535
