15

C     -1.266310   -0.453914   -0.088390
C     -1.050996    1.056887    0.086012
O      0.139591    1.324957    0.840461
C      1.277263    0.751694    0.180440
C      1.109744   -0.765372    0.007977
N     -0.114544   -1.102358   -0.738599
H     -2.164267   -0.630701   -0.689140
H     -1.425881   -0.915998    0.893563
H     -1.893800    1.490933    0.633249
H     -0.985986    1.564413   -0.883990
H      2.157037    0.959941    0.797540
H      1.422479    1.248706   -0.786309
H      1.066335   -1.242683    0.994640
H      1.976852   -1.173528   -0.521186
H     -0.247518   -2.112975   -0.726267
