23

C     -4.015144    0.432834   -0.401189
C     -2.769744   -0.407618   -0.168503
C     -1.504820    0.450136   -0.181057
C     -0.256438   -0.397647    0.052963
C      1.010661    0.450495    0.041999
O      2.128815   -0.418460    0.267546
C      3.333070    0.215616    0.282140
O      3.506953    1.415408    0.123074
C      4.430361   -0.775092    0.523543
H     -4.126708    1.193087    0.378495
H     -4.907679   -0.200511   -0.388242
H     -3.971539    0.938652   -1.371026
H     -2.859637   -0.924730    0.793911
H     -2.705322   -1.177762   -0.945968
H     -1.576106    1.221376    0.595563
H     -1.421802    0.968364   -1.144165
H     -0.330448   -0.926584    1.011442
H     -0.177350   -1.177624   -0.714707
H      1.123572    0.946822   -0.929009
H      0.966902    1.203718    0.837415
H      4.286364   -1.258900    1.492850
H      4.443525   -1.516612   -0.279162
H      5.392514   -0.254971    0.533234
