24

C      3.478768    0.166219   -0.216082
C      2.031778    0.558623   -0.471593
C      1.081179   -0.156631    0.490008
C     -0.375572    0.269955    0.300683
C     -1.320855   -0.425804    1.277916
C     -2.698686   -0.177096    0.679670
C     -2.485048   -0.097314   -0.831388
C     -0.973747   -0.109542   -1.053477
H      3.622584   -0.910644   -0.350329
H      3.783109    0.429755    0.801882
H      4.141557    0.687207   -0.914091
H      1.928802    1.644022   -0.358384
H      1.777114    0.313601   -1.508622
H      1.382307    0.059430    1.522881
H      1.175488   -1.241663    0.355788
H     -0.457665    1.356798    0.438611
H     -1.120142   -1.503533    1.317544
H     -1.237638   -0.028125    2.294024
H     -3.100758    0.775171    1.045386
H     -3.409866   -0.962164    0.954359
H     -2.929707    0.823039   -1.226200
H     -2.959878   -0.937618   -1.348757
H     -0.654832   -1.115969   -1.351379
H     -0.678293    0.582282   -1.848451
