25

C     -4.695133   -0.022903    0.360841
C     -3.250988    0.434325    0.458881
C     -2.286670   -0.611219   -0.087406
O     -0.954631   -0.097104    0.044856
C      0.012439   -0.933548   -0.406945
O     -0.168809   -2.038602   -0.893699
C      1.359039   -0.323745   -0.232448
C      2.478040   -1.060395   -0.650521
C      3.765312   -0.534759   -0.509661
C      3.928695    0.728225    0.049958
C      2.830657    1.471216    0.469320
C      1.542972    0.947571    0.329393
O      5.164463    1.280953    0.206975
H     -4.976839   -0.212044   -0.679908
H     -5.364443    0.745821    0.759499
H     -4.855086   -0.942413    0.932861
H     -3.000296    0.655340    1.503354
H     -3.120421    1.375943   -0.087860
H     -2.377467   -1.542912    0.483307
H     -2.500397   -0.805497   -1.145039
H      2.349076   -2.048837   -1.088410
H      4.617215   -1.121210   -0.839553
H      2.976216    2.456367    0.904466
H      0.696116    1.542035    0.662532
H      5.830942    0.657393   -0.125721
