27

C      4.072983    0.054842   -0.585264
C      2.581667   -0.100111   -0.501036
C      1.908165   -1.256861   -0.485015
C      0.413191   -1.205422   -0.472824
O     -0.224146   -2.183372   -0.860471
N     -0.161459   -0.012270   -0.032032
C      0.516201    1.169619   -0.302701
O      0.013682    2.284523   -0.415582
N      1.871123    1.069719   -0.471891
C     -1.643328    0.035824    0.228724
C     -2.032611    1.209545    1.168377
C     -2.418911    0.180996   -1.093372
C     -2.143757   -1.234150    0.969897
Cl     2.651436   -2.807946   -0.560687
H      4.344704    0.608774   -1.490514
H      4.442514    0.613587    0.281614
H      4.609635   -0.896955   -0.611160
H      2.343600    1.960089   -0.589475
H     -3.066671    1.113002    1.521061
H     -1.986406    2.184089    0.675167
H     -1.381034    1.239198    2.049040
H     -2.222831   -0.658725   -1.768506
H     -3.499599    0.219443   -0.915909
H     -2.136132    1.096277   -1.624517
H     -1.510684   -1.456374    1.836468
H     -3.171622   -1.106882    1.330786
H     -2.169713   -2.120461    0.330665
