22

C     -3.553474   -0.246418    1.055093
C     -2.489815   -0.456059   -0.010709
C     -1.113352   -0.014873    0.478563
C     -0.043454   -0.223210   -0.586736
O      1.207869    0.211065   -0.054056
C      2.269155    0.045710   -1.003548
C      3.561439    0.523740   -0.350721
O      3.827606   -0.255953    0.814333
H     -3.325040   -0.824270    1.956347
H     -4.531141   -0.568951    0.683531
H     -3.627310    0.809762    1.333276
H     -2.764568    0.109020   -0.908964
H     -2.463984   -1.515946   -0.289343
H     -1.134575    1.042913    0.769488
H     -0.836357   -0.569112    1.384163
H     -0.281344    0.360701   -1.483238
H      0.022120   -1.283527   -0.856362
H      2.059184    0.633320   -1.903300
H      2.350001   -1.016151   -1.261212
H      4.407589    0.423293   -1.035820
H      3.476933    1.568695   -0.036373
H      2.982518   -0.271893    1.305591
