8

C      0.815457   -0.031584   -0.007776
C     -0.709579    0.140187   -0.010041
Cl    -1.476653   -0.785182   -1.337959
Cl    -1.091058    1.881632   -0.263906
Cl    -1.432395   -0.354133    1.552412
Cl     1.370956   -1.716545    0.235001
H      1.275010    0.563061    0.789502
H      1.248263    0.302565   -0.957232
