8

C     -1.008402   -0.160886    0.050521
O      0.275767   -0.771143   -0.082176
C      1.304580    0.112067   -0.073417
O      1.223373    1.324886    0.033449
H     -1.763225   -0.951913    0.032099
H     -1.198473    0.518763   -0.786169
H     -1.084736    0.368506    1.005517
H      2.251115   -0.440280   -0.179824
