24

C     -3.971610    0.859945    0.042285
C     -2.768438    0.121808    0.607119
C     -1.509323    0.390165   -0.216791
C     -0.301395   -0.354133    0.354688
C      0.959252   -0.085573   -0.469803
C      2.166291   -0.831211    0.102867
C      3.401176   -0.578322   -0.713451
C      4.505217    0.013620   -0.240903
H     -4.178613    0.544309   -0.985266
H     -4.860624    0.653908    0.646533
H     -3.803854    1.941700    0.042590
H     -2.981186   -0.953458    0.622842
H     -2.608500    0.436230    1.645031
H     -1.303378    1.467383   -0.232750
H     -1.676073    0.077767   -1.254899
H     -0.134915   -0.041460    1.392731
H     -0.507350   -1.431328    0.370272
H      0.789434   -0.395263   -1.508861
H      1.163457    0.992576   -0.486064
H      1.968963   -1.909872    0.107853
H      2.324112   -0.531663    1.146202
H      3.383940   -0.912198   -1.749114
H      5.370398    0.165035   -0.879115
H      4.573018    0.360032    0.785658
