21

C      3.698408   -0.010662   -0.034193
C      2.353443   -0.037900    0.669228
C      1.195361    0.008003   -0.319092
O     -0.024661   -0.021096    0.419960
C     -1.163671    0.019102   -0.438256
C     -2.415830   -0.015466    0.428312
C     -3.682751    0.024057   -0.407046
H      4.510634   -0.044578    0.698602
H      3.812982    0.902969   -0.626180
H      3.808544   -0.869984   -0.703320
H      2.278793    0.808462    1.362557
H      2.274412   -0.940899    1.286440
H      1.240876    0.927231   -0.914375
H      1.236407   -0.856264   -0.991974
H     -1.144811   -0.845060   -1.112262
H     -1.140341    0.938435   -1.034659
H     -2.407872   -0.918874    1.049918
H     -2.403488    0.830486    1.126035
H     -4.564968   -0.001894    0.240155
H     -3.732955   -0.834510   -1.084275
H     -3.728512    0.938443   -1.007130
