26

C      2.383422    0.816694   -1.097554
C      1.303178   -0.158639   -0.615938
C      1.986553   -1.382193    0.003100
C      0.363533    0.546012    0.390604
C     -1.143082    0.160021    0.337637
C     -1.367493   -1.348230    0.511460
C     -1.775563    0.615348   -0.990297
C     -1.863311    0.893338    1.488293
H      3.058348    0.330638   -1.810199
H      1.931687    1.676684   -1.603519
H      2.984155    1.190248   -0.261153
H      0.744507   -0.486867   -1.498045
H      2.643252   -1.867113   -0.727535
H      1.262331   -2.129044    0.336202
H      2.599199   -1.100288    0.866536
H      0.424667    1.632446    0.235165
H      0.742169    0.378326    1.408295
H     -0.964696   -1.917197   -0.332584
H     -2.436647   -1.582653    0.573499
H     -0.896705   -1.714619    1.430201
H     -1.359622    0.078070   -1.848092
H     -1.616964    1.686679   -1.156930
H     -2.857250    0.437330   -0.991847
H     -1.461796    0.591351    2.462236
H     -1.746714    1.979484    1.400540
H     -2.937159    0.674173    1.489925
