28

C     -5.046937   -0.324117    0.371186
C     -3.811573    0.447987   -0.063803
C     -2.529332   -0.313832    0.268326
C     -1.291049    0.464718   -0.170009
C      0.003418   -0.268058    0.147090
O      0.017438   -1.367723    0.697793
C      1.279374    0.450986   -0.262872
C      2.537679   -0.340905    0.085261
C      3.800668    0.407316   -0.338820
C      5.055891   -0.378095    0.006187
H     -5.952351    0.238967    0.124054
H     -5.039968   -0.499000    1.451791
H     -5.101500   -1.293838   -0.133791
H     -3.804181    1.424579    0.434114
H     -3.865378    0.634104   -1.142772
H     -2.543321   -1.293658   -0.225204
H     -2.482279   -0.505193    1.347675
H     -1.261360    1.434759    0.338523
H     -1.323063    0.637722   -1.251447
H      1.296812    1.421089    0.246105
H      1.235111    0.624058   -1.343867
H      2.505561   -1.320633   -0.407617
H      2.566597   -0.532173    1.165265
H      3.778458    0.593268   -1.418929
H      3.839647    1.383738    0.157959
H      5.947068    0.175393   -0.305847
H      5.063522   -1.348145   -0.501043
H      5.125048   -0.553317    1.084544
