34

C     -3.873652    2.561074   -0.151601
C     -3.134140    1.566198    0.728561
C     -2.262928    0.624206   -0.101050
C     -1.524505   -0.377009    0.789919
N     -0.675204   -1.280983    0.004728
C     -1.292206   -2.520484   -0.463211
C     -1.124993   -3.648923    0.542586
C      0.663838   -1.068348   -0.319069
O      1.340090   -1.881015   -0.941041
S      1.370105    0.456712    0.203523
C      3.050320    0.255085   -0.457103
C      3.889725    1.487045   -0.127675
C      5.304853    1.346707   -0.669657
H     -4.490495    3.224845    0.462246
H     -4.530174    2.045853   -0.860020
H     -3.171632    3.179207   -0.720312
H     -3.862893    0.986720    1.307166
H     -2.511735    2.114133    1.445554
H     -2.887941    0.084542   -0.823122
H     -1.544629    1.208058   -0.688499
H     -0.925216    0.148759    1.539121
H     -2.244239   -0.984692    1.351709
H     -2.354725   -2.338431   -0.658901
H     -0.840173   -2.818680   -1.416019
H     -1.593256   -4.564274    0.168005
H     -0.066535   -3.857555    0.729406
H     -1.588645   -3.395353    1.501316
H      2.997242    0.118174   -1.542495
H      3.506867   -0.637381   -0.015855
H      3.435165    2.386391   -0.560838
H      3.942287    1.634757    0.957908
H      5.807232    0.476975   -0.234250
H      5.893838    2.236472   -0.425974
H      5.298353    1.231215   -1.758242
