17

C     -2.740857    0.057045   -0.135013
C     -1.362703   -0.584002   -0.166615
C     -0.263565    0.439400    0.105001
C      1.123169   -0.199309    0.074427
O      2.079702    0.823957    0.336457
N      3.409352    0.338942    0.331782
O      4.237885    1.218865    0.557508
O      3.572591   -0.862069    0.110437
H     -2.826800    0.840163   -0.895074
H     -2.943350    0.503888    0.843599
H     -3.512675   -0.693580   -0.331929
H     -1.320713   -1.383349    0.582331
H     -1.204810   -1.048940   -1.146687
H     -0.306653    1.248414   -0.635106
H     -0.421650    0.916620    1.080394
H      1.299533   -0.637810   -0.915504
H      1.181544   -0.978237    0.844632
