12

C     -1.457199   -0.077588   -0.001286
C     -0.825681    1.166669   -0.015987
C      0.567902    1.242577   -0.014778
C      1.322906    0.070437    0.001170
C      0.696610   -1.175249    0.015885
C     -0.697154   -1.247751    0.014633
Br     3.210907    0.170963    0.002867
H     -2.542972   -0.135399   -0.002236
H     -1.419244    2.077306   -0.028385
H      1.052707    2.214917   -0.026277
H      1.281902   -2.090612    0.028324
H     -1.190684   -2.216270    0.026068
