17

C      2.543699    0.346795    0.095970
C      1.241266    0.203072   -0.675081
C      0.054493   -0.008406    0.264679
C     -1.253981   -0.152570   -0.514587
C     -2.432287   -0.362966    0.427130
Cl    -3.943224   -0.528265   -0.496610
H      2.505418    1.205202    0.774209
H      2.750112   -0.550461    0.688137
H      3.378818    0.497081   -0.595336
H      1.081027    1.102489   -1.280947
H      1.324371   -0.643492   -1.366546
H     -0.021608    0.839090    0.956866
H      0.221734   -0.906874    0.871268
H     -1.418743    0.746517   -1.121278
H     -1.175327   -0.999972   -1.206903
H     -2.550389    0.485342    1.108006
H     -2.305379   -1.272582    1.021821
