23

C      3.970406    0.413897    0.021303
C      3.128485    1.517871    0.026133
C      1.739880    1.339162    0.033839
C      1.151674    0.056955    0.037366
C      2.029363   -1.037455    0.031900
C      3.420971   -0.862566    0.024119
N     -0.287484   -0.077759    0.044311
C     -0.972893   -1.305568    0.063885
O     -0.460459   -2.424669    0.080780
C     -2.467730   -1.209316    0.054354
C     -3.125374   -0.044017    0.035085
C     -2.237329    1.135055    0.040598
N     -0.949170    1.136830    0.037991
N     -4.495609    0.168416    0.016287
Cl    -3.354708   -2.703965    0.044563
H      5.048727    0.546005    0.015747
H      3.544274    2.521913    0.024597
H      1.121284    2.233516    0.038615
H      1.677111   -2.062803    0.032546
H      4.070968   -1.734319    0.020495
H     -2.750814    2.111379    0.046484
H     -4.783633    0.959325   -0.556345
H     -5.017942   -0.677889   -0.214653
