9

C      0.653972   -0.310389    0.020949
C     -0.852892   -0.149859   -0.164241
F     -1.490679   -1.329816   -0.005375
F     -1.161011    0.328257   -1.387693
F     -1.347805    0.713198    0.754270
O      1.377371    0.929228   -0.003118
H      0.859268   -0.789496    0.983281
H      1.062801   -0.949451   -0.767163
H      0.898975    1.558327    0.569088
