25

C      4.314073    0.634508   -0.194158
C      3.042022    0.201397   -0.905179
C      1.829708    0.283668    0.017965
C      0.551777   -0.149622   -0.690587
O     -0.529865   -0.044312    0.235217
C     -1.773731   -0.437719   -0.361841
C     -2.869208   -0.284158    0.697084
C     -4.234233   -0.679993    0.162834
O     -2.923575    1.082000    1.118097
H      4.516852   -0.004557    0.671193
H      5.169570    0.567813   -0.873566
H      4.236210    1.669615    0.153470
H      3.164821   -0.825683   -1.268071
H      2.885756    0.839201   -1.782934
H      1.706977    1.307283    0.393686
H      1.983851   -0.344335    0.904448
H      0.358544    0.497409   -1.553872
H      0.640255   -1.187105   -1.032693
H     -1.708154   -1.477233   -0.701357
H     -1.974699    0.219598   -1.215818
H     -2.622327   -0.881330    1.581925
H     -4.248274   -1.726381   -0.156469
H     -5.001016   -0.538937    0.932176
H     -4.521671   -0.049419   -0.685738
H     -1.993661    1.328294    1.293205
