17

C      2.643433   -0.092713   -0.339727
O      1.558467    0.813831   -0.179646
C      0.313256    0.257964   -0.033866
C      0.013118   -1.104195   -0.027922
C     -1.312035   -1.527828    0.131209
C     -2.339977   -0.595447    0.284623
C     -2.048737    0.766474    0.279809
C     -0.731044    1.178041    0.121345
O     -0.469558    2.521910    0.119901
H      3.559019    0.497658   -0.442599
H      2.528048   -0.689495   -1.250542
H      2.756919   -0.732103    0.541946
H      0.779961   -1.862225   -0.143853
H     -1.543205   -2.590467    0.135467
H     -3.366640   -0.930166    0.407755
H     -2.838484    1.501914    0.398128
H      0.497461    2.586846   -0.002028
