22

C     -3.680794    0.195986    0.099732
C     -3.487781   -1.099851   -0.384113
C     -2.194845   -1.598524   -0.553390
C     -1.098612   -0.797496   -0.237414
C     -1.291301    0.496155    0.245623
C     -2.581343    0.996307    0.415485
O     -0.242787    1.319985    0.569493
C      1.007503    0.785910    0.386339
C      2.101919    1.588557    0.702888
C      3.397349    1.091103    0.534109
C      3.591139   -0.209945    0.048322
C      2.488929   -1.009708   -0.267269
C      1.200164   -0.507553   -0.096628
O      0.152138   -1.331416   -0.420505
Cl     5.164516   -0.885651   -0.183527
Cl     4.715138    2.131346    0.942982
H     -4.688723    0.582336    0.230793
H     -4.345584   -1.721436   -0.629408
H     -2.044195   -2.606417   -0.929714
H     -2.730970    2.004330    0.791868
H      1.940382    2.595417    1.078677
H      2.627758   -2.019434   -0.644437
