17

C     -1.248948   -1.214577    0.084674
C     -0.712141    0.111835    0.627584
C     -1.599835    1.268738    0.173098
C      0.742311    0.347838    0.192193
O      1.559407   -0.684667    0.738869
N      2.921640   -0.549022    0.380018
O      3.226887    0.410343   -0.330219
O      3.627824   -1.440649    0.846889
H     -2.285685   -1.371412    0.401221
H     -0.659896   -2.060729    0.452968
H     -1.223188   -1.234330   -1.010176
H     -0.742892    0.054549    1.723224
H     -2.632606    1.120943    0.506042
H     -1.605537    1.360868   -0.918348
H     -1.247085    2.217229    0.591615
H      0.803643    0.341445   -0.903755
H      1.076102    1.321596    0.572588
