10

C     -1.146387   -0.059249   -0.029623
C      0.268157    0.490183    0.028162
N      1.214486   -0.573179    0.338356
H     -1.437092   -0.506640    0.926915
H     -1.244613   -0.822528   -0.808976
H     -1.854465    0.744765   -0.254635
H      0.331501    1.266904    0.796959
H      0.529100    0.946978   -0.932180
H      2.162012   -0.198317    0.321353
H      1.177301   -1.288917   -0.386332
