16

C      0.104073   -1.193900    0.325944
C     -1.168869   -0.647453   -0.311731
C     -1.282048    0.854968   -0.087941
O     -0.120392    1.527936   -0.573474
C      1.065286    1.112049    0.104229
C      1.315283   -0.375387   -0.108360
H      0.241655   -2.245746    0.052530
H      0.010257   -1.153700    1.418114
H     -2.047860   -1.160701    0.091880
H     -1.133263   -0.847736   -1.389695
H     -2.147042    1.248269   -0.631316
H     -1.422727    1.090471    0.973560
H      1.901296    1.691646   -0.299889
H      0.979548    1.353570    1.170228
H      2.207495   -0.694652    0.440255
H      1.497310   -0.559634   -1.174337
