17

C     -1.276460   -1.490885   -0.043085
C     -0.035531   -0.645151   -0.005414
C      1.221523   -1.258736    0.022482
C      2.355815   -0.463477    0.057072
N      2.327055    0.883572    0.065740
C      1.104973    1.459742    0.038478
C     -0.099281    0.758129    0.002751
C     -1.400864    1.501198   -0.025381
H     -1.034424   -2.559063   -0.044346
H     -1.897608   -1.294425    0.836506
H     -1.851864   -1.281950   -0.950476
H      1.323976   -2.338881    0.017564
H      3.347533   -0.905654    0.079373
H      1.123667    2.546695    0.046545
H     -2.004455    1.245554    0.851218
H     -1.245330    2.585310   -0.013834
H     -1.958726    1.258022   -0.935193
