31

C     -2.859621   -2.094871    0.260780
O     -3.294308   -0.747554    0.242849
P     -3.356257    0.041971   -1.177550
S     -4.625030   -0.741330   -2.435207
O     -3.831088    1.501314   -0.631201
C     -5.095372    1.626955   -0.007229
S     -1.375999    0.339335   -1.802994
C     -0.677341    1.147262   -0.346412
N      0.758579    0.960264   -0.285637
C      1.274366   -0.148322    0.356580
O      0.598282   -1.002465    0.924523
C      2.729278   -0.262770    0.329781
C      3.399029   -1.330238    0.939429
C      4.790063   -1.387327    0.882046
C      5.496687   -0.384032    0.220205
C      4.809927    0.674563   -0.383061
C      3.412618    0.744277   -0.333009
N      2.766310    1.821027   -0.950191
N      1.519537    1.897440   -0.924854
H     -3.682795   -2.752555   -0.029268
H     -2.553309   -2.346393    1.279399
H     -2.009187   -2.248903   -0.407558
H     -5.100134    2.548418    0.580827
H     -5.879427    1.695287   -0.765433
H     -5.295043    0.786394    0.662283
H     -0.902292    2.218477   -0.377785
H     -1.131178    0.736816    0.560195
H      2.840647   -2.109571    1.452993
H      5.321962   -2.211967    1.350987
H      6.582597   -0.424277    0.171523
H      5.368497    1.452775   -0.898679
