20

C      3.154662   -0.227362    0.294694
C      1.820544   -0.609889   -0.326049
C      0.670076    0.193865    0.279487
C     -0.670077   -0.193865   -0.347562
C     -1.820544    0.609888    0.257974
C     -3.154662    0.227363   -0.362772
H      3.963035   -0.814021   -0.152829
H      3.154317   -0.416525    1.372912
H      3.373703    0.832708    0.131573
H      1.865289   -0.439157   -1.407970
H      1.647111   -1.681499   -0.173474
H      0.850545    1.265085    0.127817
H      0.632375    0.022794    1.362259
H     -0.850545   -1.265085   -0.195893
H     -0.632375   -0.022794   -1.430335
H     -1.865291    0.439154    1.339895
H     -1.647111    1.681498    0.105401
H     -3.154314    0.416526   -1.440990
H     -3.963034    0.814023    0.084750
H     -3.373704   -0.832707   -0.199651
