29

C      3.140020    0.944387   -0.666458
C      2.156805    0.511130    0.424274
C      2.705164   -0.716876    1.152628
C      0.767010    0.259740   -0.195786
C     -0.318484   -0.036376    0.849830
C     -1.766722   -0.158807    0.301124
C     -2.242127    1.164678   -0.321329
C     -1.872252   -1.278619   -0.746961
C     -2.698221   -0.502739    1.480534
H      4.123731    1.165440   -0.238756
H      3.266656    0.161000   -1.421528
H      2.786982    1.849398   -1.172123
H      2.076149    1.332287    1.147770
H      3.722004   -0.531127    1.515382
H      2.736895   -1.589416    0.491454
H      2.093972   -0.970057    2.023977
H      0.835704   -0.572195   -0.906477
H      0.485079    1.148344   -0.771144
H     -0.293681    0.752409    1.613533
H     -0.066754   -0.971774    1.364935
H     -3.300605    1.109770   -0.601157
H     -2.128121    1.995964    0.383212
H     -1.683224    1.412583   -1.229265
H     -1.498455   -2.228512   -0.348920
H     -1.300874   -1.043237   -1.650843
H     -2.912959   -1.433657   -1.054227
H     -2.664826    0.275851    2.251015
H     -2.409941   -1.450249    1.949661
H     -3.738923   -0.599340    1.150814
