18

C      3.142440    0.298431    0.319784
O      2.228220   -0.732040   -0.032295
C      0.900625   -0.405436   -0.031858
C      0.359068    0.835958    0.296403
C     -1.027679    1.031456    0.254250
C     -1.885987    0.008604   -0.154310
C     -1.342343   -1.247731   -0.422176
C      0.041082   -1.447190   -0.382771
N     -3.272746    0.177683   -0.078982
H      3.085575    1.135077   -0.384450
H      4.153078   -0.117125    0.261607
H      2.979953    0.635295    1.348952
H      0.980810    1.669844    0.602862
H     -1.431418    1.997494    0.545666
H     -1.988679   -2.086004   -0.666367
H      0.449239   -2.427609   -0.614529
H     -3.575956    1.139073   -0.196717
H     -3.795282   -0.465778   -0.665068
