22

C     -1.551767   -1.126096   -0.064386
C     -1.695364    0.386033   -0.206876
C     -0.791351    1.211771    0.702406
C      0.586717    1.457795    0.093966
C      1.519686    0.248567    0.065901
C      0.956735   -0.990142   -0.632345
C     -0.147061   -1.674750    0.165366
O      2.711976    0.625136   -0.629088
H     -2.185056   -1.466465    0.765097
H     -1.973044   -1.590997   -0.965090
H     -1.532338    0.671731   -1.253622
H     -2.740791    0.641086    0.009222
H     -1.264696    2.191976    0.842809
H     -0.708652    0.761747    1.698167
H      0.481523    1.866765   -0.919778
H      1.081080    2.254575    0.665903
H      1.816154   -0.012787    1.088754
H      0.625735   -0.750253   -1.650273
H      1.780248   -1.706049   -0.758908
H      0.090299   -1.639134    1.235950
H     -0.161830   -2.740269   -0.097659
H      3.101796    1.379759   -0.155516
