15

C     -0.922550   -1.063539   -0.591915
C     -0.070420   -0.087976    0.217013
C     -0.500171    1.353208   -0.053534
C      1.412545   -0.282357   -0.095921
O     -0.284435   -0.374091    1.599708
H     -0.649720   -2.100603   -0.365165
H     -0.808831   -0.902639   -1.668914
H     -1.983216   -0.960329   -0.335614
H      0.081883    2.055552    0.554010
H     -1.550533    1.504413    0.220359
H     -0.373665    1.620809   -1.107616
H      1.630246   -0.092736   -1.152024
H      1.731629   -1.302166    0.147623
H      2.031539    0.388399    0.510805
H      0.255699    0.244056    2.121185
