26

C     -3.657269    0.856920    0.231453
C     -3.720373   -0.531168    0.155409
C     -2.549992   -1.273538    0.000915
C     -1.301340   -0.635185   -0.068502
C     -1.237665    0.765461    0.008231
C     -2.423778    1.502767    0.153011
C      0.078900    1.496016   -0.107068
C      1.308328    0.644559    0.102397
C      2.544979    1.266814    0.336786
C      3.702665    0.507416    0.503667
C      3.639562   -0.880672    0.427622
C      2.418766   -1.509491    0.184689
C      1.244653   -0.756087    0.025664
C     -0.055706   -1.464905   -0.269278
H     -4.568452    1.437546    0.347476
H     -4.680909   -1.036158    0.211957
H     -2.614745   -2.357323   -0.066150
H     -2.389888    2.588792    0.204815
H      0.089557    2.301358    0.638808
H      0.137271    1.947947   -1.105004
H      2.610289    2.351347    0.389751
H      4.653664    0.999612    0.688563
H      4.541207   -1.474092    0.553045
H      2.385433   -2.594768    0.118786
H     -0.033514   -1.808770   -1.310810
H     -0.121644   -2.344399    0.384300
