14

C      1.413745    0.342335   -0.040151
C     -0.011772   -0.032234    0.369354
C     -0.993596    1.061754   -0.054092
C     -0.409239   -1.374216   -0.248059
Cl    -0.068819   -0.188439    2.159217
H      1.722156    1.293978    0.407665
H      1.493915    0.448189   -1.128016
H      2.134028   -0.422967    0.270952
H     -0.990969    1.190782   -1.142407
H     -2.018938    0.818120    0.246900
H     -0.734044    2.027998    0.393441
H     -1.422721   -1.667289    0.048997
H     -0.387791   -1.323655   -1.342622
H      0.274045   -2.174357    0.058823
