26

C     -2.242148    1.400551   -0.855670
C     -2.363191    0.274035    0.173086
C     -3.696613   -0.452409    0.010835
C     -1.196803   -0.715159    0.056900
O      0.029939   -0.025404    0.334679
C      1.148267   -0.797112    0.219302
O      1.152728   -1.982121   -0.083462
C      2.381614    0.036546    0.515679
C      2.682387    0.951658   -0.665683
C      3.577550   -0.858216    0.830418
H     -3.079561    2.100486   -0.763891
H     -1.318349    1.970414   -0.712164
H     -2.241778    1.005978   -1.877471
H     -2.332040    0.734419    1.168879
H     -3.808466   -1.233866    0.769818
H     -3.775831   -0.923285   -0.974962
H     -4.534972    0.243313    0.122317
H     -1.320946   -1.524379    0.786601
H     -1.158890   -1.142483   -0.952806
H      2.172129    0.638898    1.408354
H      1.841069    1.623591   -0.867147
H      2.865674    0.373885   -1.578495
H      3.565121    1.568417   -0.467725
H      4.452100   -0.257587    1.101384
H      3.353348   -1.526909    1.668696
H      3.847661   -1.483260   -0.028052
