21

C      3.401440   -0.533242    0.201073
C      2.021362   -0.058766    0.545250
O      1.612769    0.112400    1.686678
O      1.317849    0.170394   -0.632040
C     -0.013222    0.529822   -0.401004
C     -0.318427    1.892979   -0.471800
C     -1.632009    2.316440   -0.279589
C     -2.635827    1.381114   -0.030310
C     -2.330309    0.017014    0.020975
C     -1.012630   -0.426848   -0.171440
C     -0.685704   -1.876940   -0.147112
O      0.393312   -2.390895   -0.377634
O     -1.749786   -2.640869    0.167514
H      3.941809    0.254409   -0.329578
H      3.342075   -1.438327   -0.408688
H      3.941673   -0.772221    1.121566
H      0.464173    2.620783   -0.666950
H     -1.873746    3.375726   -0.322041
H     -3.660605    1.712184    0.122403
H     -3.133198   -0.692171    0.209519
H     -1.390998   -3.552987    0.163211
