15

C     -0.841939    1.453324    0.345264
C      0.528660    1.319515    0.116407
C      1.067498    0.057443   -0.154114
C      0.244984   -1.069327   -0.196964
C     -1.118321   -0.920180    0.033070
C     -1.670117    0.330004    0.303791
O     -1.892432   -2.041544   -0.016350
C      2.514807   -0.096389   -0.397650
O      3.284206    0.856270   -0.372696
H     -1.262093    2.433974    0.555688
H      1.173112    2.195933    0.149023
H      0.647095   -2.056232   -0.405570
H     -2.734326    0.449144    0.483764
H     -2.815232   -1.793563    0.161305
H      2.874099   -1.118373   -0.604968
