17

C      0.527951   -1.772116   -0.396616
C      0.614994   -0.246233   -0.311620
C     -0.527408    0.313274    0.551202
O     -1.770767    0.035436   -0.085928
N     -2.881111    0.495701    0.661708
O     -2.645505    1.050442    1.735504
O     -3.954243    0.257117    0.112759
O      1.881818    0.053021    0.280067
N      2.383900    1.333622   -0.057861
O      3.495238    1.548514    0.419167
O      1.663688    2.057547   -0.745337
H      1.365820   -2.167178   -0.981794
H      0.599068   -2.225473    0.598413
H     -0.404689   -2.099347   -0.865788
H      0.541671    0.120342   -1.344124
H     -0.486306   -0.150250    1.546040
H     -0.404117    1.395582    0.676085
