14

C      0.613172    1.241732    0.304116
C     -0.782910    1.223630    0.295871
C     -1.455830    0.041427    0.006088
C     -0.757162   -1.128444   -0.276922
C      0.640395   -1.111534   -0.268963
C      1.329256    0.073113    0.021459
C      2.762934    0.087709    0.028955
N      3.923537    0.095437    0.034027
O     -2.818080    0.072180    0.009837
H      1.133489    2.170026    0.531639
H     -1.344346    2.128232    0.514650
H     -1.277200   -2.054213   -0.503828
H      1.187430   -2.026301   -0.490257
H     -3.154685   -0.812993   -0.206673
