9

C     -1.095770   -0.031738    0.156549
C      0.305059    0.509860    0.135766
O      0.602168    1.619828    0.560527
N      1.246450   -0.318401   -0.395343
H     -1.155802   -1.010272   -0.327967
H     -1.754368    0.659807   -0.375725
H     -1.424892   -0.132795    1.194071
H      1.070021   -1.294150   -0.587032
H      2.207135   -0.002140   -0.360846
