44

C      4.747965   -0.137752    1.552577
N      4.003958    0.359055    0.391528
C      3.873802    1.815965    0.479976
C      2.686373   -0.304142    0.321342
C      1.931753   -0.034102   -0.992395
C      0.671289   -0.861598   -1.074193
C     -0.609147   -0.457516   -0.907215
C     -1.670472   -1.500366   -0.927465
C     -1.760516   -2.338938   -2.057851
C     -2.737809   -3.329104   -2.152824
C     -3.653443   -3.491498   -1.123116
C     -3.592147   -2.659911   -0.005443
C     -2.606746   -1.655539    0.117363
C     -2.690438   -0.797046    1.369362
C     -1.517500    0.114470    1.747519
C     -1.330277    1.237118    0.757439
C     -0.902979    0.945401   -0.548095
C     -0.786425    1.974777   -1.490683
C     -1.063180    3.293140   -1.129084
C     -1.466903    3.587861    0.171762
C     -1.604344    2.565168    1.111550
H      5.744441    0.316248    1.595069
H      4.231464    0.072872    2.496197
H      4.903353   -1.219841    1.477274
H      3.434493    2.232284   -0.431577
H      4.860328    2.284007    0.577237
H      3.263016    2.125953    1.335624
H      2.838378   -1.389612    0.397529
H      2.062469   -0.014137    1.177824
H      1.716926    1.031515   -1.095308
H      2.566704   -0.301147   -1.846585
H      0.867980   -1.918071   -1.259086
H     -1.066101   -2.214240   -2.886645
H     -2.785784   -3.963590   -3.033404
H     -4.422600   -4.256006   -1.191410
H     -4.331828   -2.793099    0.782520
H     -2.842282   -1.476537    2.219353
H     -3.599864   -0.186170    1.285162
H     -1.713799    0.537423    2.741166
H     -0.587139   -0.458251    1.848459
H     -0.476154    1.750604   -2.508267
H     -0.966183    4.088552   -1.863047
H     -1.684743    4.615162    0.452319
H     -1.935890    2.810640    2.117541
