13

C     -1.769922   -0.094249    0.070665
C     -1.140822    1.137925   -0.092792
C      0.255973    1.213626   -0.148712
C      1.038783    0.055316   -0.041476
C      0.394220   -1.179003    0.122752
C     -1.002728   -1.252070    0.178374
Cl     1.271064   -2.663778    0.264491
C      2.468942    0.131472   -0.098576
N      3.627241    0.193152   -0.144819
Cl     0.956382    2.782392   -0.353422
H     -2.855585   -0.152061    0.114012
H     -1.744621    2.039741   -0.176474
H     -1.498927   -2.212461    0.305978
