19

C      3.088406   -0.080195    0.122981
C      2.518326   -1.133529    0.833298
C      1.134238   -1.187169    1.006079
C      0.310335   -0.196355    0.464716
C      0.887780    0.864930   -0.233678
C      2.274356    0.919617   -0.406362
O     -1.024614   -0.367725    0.703183
C     -1.928398    0.402628   -0.091606
C     -3.347160   -0.134610    0.069417
F     -3.834126    0.117867    1.311842
F     -4.187404    0.471237   -0.810295
F     -1.870757    1.700379    0.317472
H      4.166227   -0.032304   -0.009425
H      3.149317   -1.910288    1.257130
H      0.696452   -2.008926    1.567541
H      0.292856    1.678791   -0.636793
H      2.719958    1.751233   -0.946878
H     -1.655704    0.359301   -1.153118
H     -3.390088   -1.214882   -0.096551
