20

C      2.046052   -0.120377   -0.702727
C      1.105720    0.289286    0.424354
C     -0.402939    0.037652    0.170040
C     -1.185452    0.511758    1.410229
C     -0.687864   -1.458005   -0.044705
C     -0.899337    0.827899   -1.052003
H      3.080639    0.100333   -0.419062
H      1.985392   -1.192156   -0.910688
H      1.835475    0.428365   -1.624778
H      1.265099    1.356285    0.628160
H      1.413158   -0.244144    1.333397
H     -1.023438    1.579544    1.596089
H     -2.263006    0.356544    1.284217
H     -0.874080   -0.034937    2.307520
H     -1.764875   -1.646309   -0.123173
H     -0.306251   -2.056586    0.789891
H     -0.227419   -1.830876   -0.965418
H     -0.440391    0.471240   -1.979861
H     -1.984669    0.729541   -1.170106
H     -0.671813    1.894944   -0.951375
