11

C      1.817055   -0.135003    0.154026
C      0.427930    0.129917   -0.340238
O      0.161220    0.579909   -1.445484
O     -0.478896   -0.203408    0.618665
C     -1.836208    0.016953    0.233157
H      1.933614   -1.197760    0.380569
H      2.536377    0.136281   -0.624023
H      2.017368    0.472261    1.040291
H     -2.477831   -0.280365    1.067240
H     -2.092290   -0.596382   -0.636462
H     -2.008339    1.077597    0.024826
