22

C      1.473981   -1.070922   -0.405211
C      2.868439   -0.990420   -0.456570
C      3.520822    0.179730   -0.061118
C      2.772782    1.272450    0.387179
C      1.376159    1.189843    0.437885
C      0.710103    0.017964    0.042587
C     -0.763101   -0.066076    0.097217
C     -1.554777    0.314786   -1.014987
C     -2.955637    0.232212   -0.954461
C     -3.584309   -0.225961    0.202224
C     -2.823980   -0.605531    1.307167
C     -1.422144   -0.529170    1.263411
Cl    -0.487068   -1.007540    2.652726
Cl    -3.685278   -1.162744    2.700033
Cl    -3.975063    0.681175   -2.277941
Cl    -0.785159    0.889242   -2.467944
Cl     3.506678    2.752916    0.892829
Cl     5.245415    0.208902   -0.150712
H      0.988070   -1.993657   -0.718711
H      3.440756   -1.846500   -0.806986
H      0.803588    2.046755    0.788621
H     -4.670279   -0.287454    0.242664
