21

C      3.325549   -0.160167    0.047159
C      1.869788    0.054344   -0.335545
C      0.930863   -0.305190    0.816525
C     -0.515232   -0.094633    0.443469
C     -1.131596    1.145114    0.659181
C     -2.465279    1.344135    0.298677
C     -3.193004    0.308450   -0.284382
C     -2.587404   -0.926372   -0.509428
C     -1.253818   -1.127204   -0.149569
H      3.512164   -1.206573    0.308934
H      3.601990    0.463444    0.903316
H      3.980135    0.102496   -0.789763
H      1.725944    1.101762   -0.627504
H      1.636826   -0.555101   -1.217203
H      1.169736    0.297771    1.701873
H      1.081079   -1.350501    1.115232
H     -0.574710    1.963784    1.109093
H     -2.935777    2.308347    0.471580
H     -4.231077    0.464253   -0.565259
H     -3.153179   -1.733535   -0.966982
H     -0.793001   -2.094622   -0.335350
