
     RDKit          3D

  8  7  0  0  0  0  0  0  0  0999 V2000
    0.6878   -0.2996    0.0592 C   0  0  2  0  0  0  0  0  0  0  0  0
   -0.7587    0.1576   -0.0149 C   0  0  0  0  0  0  0  0  0  0  0  0
   -1.1680    0.3068   -1.2987 F   0  0  0  0  0  0  0  0  0  0  0  0
   -1.5837   -0.7602    0.5478 F   0  0  0  0  0  0  0  0  0  0  0  0
   -0.9702    1.3322    0.6196 F   0  0  0  0  0  0  0  0  0  0  0  0
    1.0816   -0.4787    1.3501 F   0  0  0  0  0  0  0  0  0  0  0  0
    1.8841    0.9870   -0.7914 Br  0  0  0  0  0  0  0  0  0  0  0  0
    0.8272   -1.2450   -0.4718 H   0  0  0  0  0  0  0  0  0  0  0  0
  1  2  1  0
  2  3  1  0
  2  4  1  0
  2  5  1  0
  1  6  1  0
  1  7  1  0
  1  8  1  6
M  END
$$$$
