
     RDKit          3D

 17 16  0  0  0  0  0  0  0  0999 V2000
   -1.6172   -1.3291    0.5960 C   0  0  0  0  0  0  0  0  0  0  0  0
   -1.2810   -0.0068   -0.0819 C   0  0  0  0  0  0  0  0  0  0  0  0
    0.2006    0.3709    0.0827 C   0  0  2  0  0  0  0  0  0  0  0  0
    0.4565    1.7350   -0.5570 C   0  0  0  0  0  0  0  0  0  0  0  0
    0.9743   -0.6224   -0.5940 O   0  0  0  0  0  0  0  0  0  0  0  0
    2.2870   -0.7817   -0.0875 N   0  0  0  0  0  4  0  0  0  0  0  0
    2.6361   -0.0475    0.8373 O   0  0  0  0  0  0  0  0  0  0  0  0
    2.9155   -1.6622   -0.6721 O   0  0  0  0  0  1  0  0  0  0  0  0
   -2.6834   -1.5498    0.4830 H   0  0  0  0  0  0  0  0  0  0  0  0
   -1.0543   -2.1580    0.1558 H   0  0  0  0  0  0  0  0  0  0  0  0
   -1.3908   -1.2887    1.6661 H   0  0  0  0  0  0  0  0  0  0  0  0
   -1.9158    0.7804    0.3415 H   0  0  0  0  0  0  0  0  0  0  0  0
   -1.5285   -0.0957   -1.1469 H   0  0  0  0  0  0  0  0  0  0  0  0
    0.4140    0.4072    1.1585 H   0  0  0  0  0  0  0  0  0  0  0  0
    0.2441    1.7086   -1.6316 H   0  0  0  0  0  0  0  0  0  0  0  0
    1.5058    2.0292   -0.4535 H   0  0  0  0  0  0  0  0  0  0  0  0
   -0.1630    2.5107   -0.0963 H   0  0  0  0  0  0  0  0  0  0  0  0
  1  2  1  0
  2  3  1  0
  3  4  1  0
  3  5  1  0
  5  6  1  0
  6  7  2  0
  6  8  1  0
  1  9  1  0
  1 10  1  0
  1 11  1  0
  2 12  1  0
  2 13  1  0
  3 14  1  1
  4 15  1  0
  4 16  1  0
  4 17  1  0
M  CHG  2   6   1   8  -1
M  END
$$$$
