
     RDKit          3D

 23 22  0  0  0  0  0  0  0  0999 V2000
    2.3611   -0.9197   -0.1173 C   0  0  0  0  0  0  0  0  0  0  0  0
    1.6355    0.4141   -0.2219 C   0  0  0  0  0  0  0  0  0  0  0  0
    0.2842    0.4576    0.5264 C   0  0  1  0  0  0  0  0  0  0  0  0
   -0.2811    1.8823    0.4373 C   0  0  0  0  0  0  0  0  0  0  0  0
   -0.7260   -0.6336    0.0686 C   0  0  0  0  0  0  0  0  0  0  0  0
   -1.1140   -0.5404   -1.4095 C   0  0  0  0  0  0  0  0  0  0  0  0
   -1.9935   -0.6388    0.9317 C   0  0  0  0  0  0  0  0  0  0  0  0
    2.4680   -1.2290    0.9270 H   0  0  0  0  0  0  0  0  0  0  0  0
    1.8355   -1.7082   -0.6634 H   0  0  0  0  0  0  0  0  0  0  0  0
    3.3635   -0.8349   -0.5494 H   0  0  0  0  0  0  0  0  0  0  0  0
    1.5002    0.6709   -1.2789 H   0  0  0  0  0  0  0  0  0  0  0  0
    2.2935    1.1863    0.1973 H   0  0  0  0  0  0  0  0  0  0  0  0
    0.5012    0.2699    1.5875 H   0  0  0  0  0  0  0  0  0  0  0  0
    0.4455    2.6075    0.8208 H   0  0  0  0  0  0  0  0  0  0  0  0
   -1.1886    1.9947    1.0371 H   0  0  0  0  0  0  0  0  0  0  0  0
   -0.5123    2.1628   -0.5949 H   0  0  0  0  0  0  0  0  0  0  0  0
   -0.2540   -1.6121    0.2214 H   0  0  0  0  0  0  0  0  0  0  0  0
   -1.6269    0.3992   -1.6367 H   0  0  0  0  0  0  0  0  0  0  0  0
   -1.7918   -1.3583   -1.6786 H   0  0  0  0  0  0  0  0  0  0  0  0
   -0.2388   -0.6207   -2.0605 H   0  0  0  0  0  0  0  0  0  0  0  0
   -1.7417   -0.6763    1.9967 H   0  0  0  0  0  0  0  0  0  0  0  0
   -2.6137    0.2453    0.7539 H   0  0  0  0  0  0  0  0  0  0  0  0
   -2.6059   -1.5187    0.7053 H   0  0  0  0  0  0  0  0  0  0  0  0
  1  2  1  0
  2  3  1  0
  3  4  1  0
  3  5  1  0
  5  6  1  0
  5  7  1  0
  1  8  1  0
  1  9  1  0
  1 10  1  0
  2 11  1  0
  2 12  1  0
  3 13  1  1
  4 14  1  0
  4 15  1  0
  4 16  1  0
  5 17  1  0
  6 18  1  0
  6 19  1  0
  6 20  1  0
  7 21  1  0
  7 22  1  0
  7 23  1  0
M  END
$$$$
