
     RDKit          3D

 13 12  0  0  0  0  0  0  0  0999 V2000
    1.3113   -0.3732    0.4691 C   0  0  0  0  0  0  0  0  0  0  0  0
    0.2424    0.3512   -0.3044 C   0  0  0  0  0  0  0  0  0  0  0  0
    0.5663    1.3203   -1.1767 C   0  0  0  0  0  0  0  0  0  0  0  0
   -1.1536   -0.0040   -0.1033 C   0  0  0  0  0  0  0  0  0  0  0  0
   -1.6186   -0.9443    0.7290 C   0  0  0  0  0  0  0  0  0  0  0  0
    1.2932   -1.4453    0.2454 H   0  0  0  0  0  0  0  0  0  0  0  0
    2.3142   -0.0076    0.2218 H   0  0  0  0  0  0  0  0  0  0  0  0
    1.1725   -0.2338    1.5467 H   0  0  0  0  0  0  0  0  0  0  0  0
   -0.1838    1.8589   -1.7477 H   0  0  0  0  0  0  0  0  0  0  0  0
    1.6001    1.6057   -1.3465 H   0  0  0  0  0  0  0  0  0  0  0  0
   -1.8853    0.5523   -0.6891 H   0  0  0  0  0  0  0  0  0  0  0  0
   -0.9727   -1.5509    1.3537 H   0  0  0  0  0  0  0  0  0  0  0  0
   -2.6860   -1.1291    0.8021 H   0  0  0  0  0  0  0  0  0  0  0  0
  1  2  1  0
  2  3  2  3
  2  4  1  0
  4  5  2  3
  1  6  1  0
  1  7  1  0
  1  8  1  0
  3  9  1  0
  3 10  1  0
  4 11  1  0
  5 12  1  0
  5 13  1  0
M  END
$$$$
