
     RDKit          3D

 12 12  0  0  0  0  0  0  0  0999 V2000
   -1.6663   -0.1801   -0.0189 C   0  0  0  0  0  0  0  0  0  0  0  0
   -0.2431    0.0365    0.0038 N   0  0  0  0  0  0  0  0  0  0  0  0
    0.7295   -0.9159   -0.0953 C   0  0  0  0  0  0  0  0  0  0  0  0
    1.9133   -0.2186   -0.0226 C   0  0  0  0  0  0  0  0  0  0  0  0
    1.6791    1.1254    0.1173 N   0  0  0  0  0  0  0  0  0  0  0  0
    0.3709    1.2488    0.1300 C   0  0  0  0  0  0  0  0  0  0  0  0
   -2.0869    0.3699   -0.8646 H   0  0  0  0  0  0  0  0  0  0  0  0
   -1.8727   -1.2476   -0.1300 H   0  0  0  0  0  0  0  0  0  0  0  0
   -2.0871    0.1839    0.9219 H   0  0  0  0  0  0  0  0  0  0  0  0
    0.5157   -1.9696   -0.2049 H   0  0  0  0  0  0  0  0  0  0  0  0
    2.9207   -0.6120   -0.0635 H   0  0  0  0  0  0  0  0  0  0  0  0
   -0.1731    2.1794    0.2268 H   0  0  0  0  0  0  0  0  0  0  0  0
  1  2  1  0
  2  3  1  0
  3  4  2  0
  4  5  1  0
  5  6  2  0
  6  2  1  0
  1  7  1  0
  1  8  1  0
  1  9  1  0
  3 10  1  0
  4 11  1  0
  6 12  1  0
M  END
$$$$
