
     RDKit          3D

 10  9  0  0  0  0  0  0  0  0999 V2000
    0.6825   -0.1456    0.4727 C   0  0  0  0  0  0  0  0  0  0  0  0
   -0.7345   -0.6445    0.2184 C   0  0  0  0  0  0  0  0  0  0  0  0
   -1.6685    0.3391    0.6602 O   0  0  0  0  0  0  0  0  0  0  0  0
    0.8656    1.0828   -0.2336 O   0  0  0  0  0  0  0  0  0  0  0  0
    0.8345    0.0566    1.5374 H   0  0  0  0  0  0  0  0  0  0  0  0
    1.4217   -0.8718    0.1232 H   0  0  0  0  0  0  0  0  0  0  0  0
   -0.9058   -0.8053   -0.8505 H   0  0  0  0  0  0  0  0  0  0  0  0
   -0.9271   -1.5763    0.7569 H   0  0  0  0  0  0  0  0  0  0  0  0
   -1.3393    1.1806    0.2858 H   0  0  0  0  0  0  0  0  0  0  0  0
    1.7709    1.3843   -0.0407 H   0  0  0  0  0  0  0  0  0  0  0  0
  1  2  1  0
  2  3  1  0
  1  4  1  0
  1  5  1  0
  1  6  1  0
  2  7  1  0
  2  8  1  0
  3  9  1  0
  4 10  1  0
M  END
$$$$
