
     RDKit          3D

 12 12  0  0  0  0  0  0  0  0999 V2000
   -0.1006    1.3815   -0.0592 C   0  0  0  0  0  0  0  0  0  0  0  0
   -0.1896    2.6035   -0.1116 O   0  0  0  0  0  0  0  0  0  0  0  0
    1.1017    0.7467   -0.0378 N   0  0  0  0  0  0  0  0  0  0  0  0
    1.2478   -0.6039    0.0198 C   0  0  0  0  0  0  0  0  0  0  0  0
    2.3516   -1.1382    0.0373 O   0  0  0  0  0  0  0  0  0  0  0  0
    0.0966   -1.3267    0.0569 N   0  0  0  0  0  0  0  0  0  0  0  0
   -1.1472   -0.7775    0.0394 C   0  0  0  0  0  0  0  0  0  0  0  0
   -2.1620   -1.4654    0.0743 O   0  0  0  0  0  0  0  0  0  0  0  0
   -1.1983    0.5800   -0.0190 N   0  0  0  0  0  0  0  0  0  0  0  0
    1.9363    1.3124   -0.0665 H   0  0  0  0  0  0  0  0  0  0  0  0
    0.1698   -2.3318    0.1000 H   0  0  0  0  0  0  0  0  0  0  0  0
   -2.1061    1.0194   -0.0334 H   0  0  0  0  0  0  0  0  0  0  0  0
  1  2  2  0
  1  3  1  0
  3  4  1  0
  4  5  2  0
  4  6  1  0
  6  7  1  0
  7  8  2  0
  7  9  1  0
  9  1  1  0
  3 10  1  0
  6 11  1  0
  9 12  1  0
M  END
$$$$
