
     RDKit          3D

 11 11  0  0  0  0  0  0  0  0999 V2000
   -0.2266    1.1932    0.0835 C   0  0  0  0  0  0  0  0  0  0  0  0
   -1.3074    0.3224   -0.0187 C   0  0  0  0  0  0  0  0  0  0  0  0
   -1.0512   -1.0375   -0.1140 C   0  0  0  0  0  0  0  0  0  0  0  0
    0.1890   -1.5703   -0.1135 N   0  0  0  0  0  0  0  0  0  0  0  0
    1.2125   -0.6976   -0.0130 C   0  0  0  0  0  0  0  0  0  0  0  0
    1.0651    0.6758    0.0868 C   0  0  0  0  0  0  0  0  0  0  0  0
    2.7698   -1.4163   -0.0162 Cl  0  0  0  0  0  0  0  0  0  0  0  0
   -0.3893    2.2647    0.1598 H   0  0  0  0  0  0  0  0  0  0  0  0
   -2.3266    0.6936   -0.0242 H   0  0  0  0  0  0  0  0  0  0  0  0
   -1.8630   -1.7552   -0.1956 H   0  0  0  0  0  0  0  0  0  0  0  0
    1.9276    1.3272    0.1651 H   0  0  0  0  0  0  0  0  0  0  0  0
  1  2  2  0
  2  3  1  0
  3  4  2  0
  4  5  1  0
  5  6  2  0
  5  7  1  0
  6  1  1  0
  1  8  1  0
  2  9  1  0
  3 10  1  0
  6 11  1  0
M  END
$$$$
