
     RDKit          3D

 17 16  0  0  0  0  0  0  0  0999 V2000
   -1.4675   -1.1340    0.2577 C   0  0  0  0  0  0  0  0  0  0  0  0
   -0.8896    0.2671    0.0930 C   0  0  0  0  0  0  0  0  0  0  0  0
   -1.6111    1.0207   -1.0177 C   0  0  0  0  0  0  0  0  0  0  0  0
    0.4963    0.1756   -0.2868 O   0  0  0  0  0  0  0  0  0  0  0  0
    1.3865    0.0213    0.7312 C   0  0  0  0  0  0  0  0  0  0  0  0
    1.1089   -0.0444    1.9199 O   0  0  0  0  0  0  0  0  0  0  0  0
    2.7781   -0.0597    0.1824 C   0  0  0  0  0  0  0  0  0  0  0  0
   -1.3343   -1.7224   -0.6569 H   0  0  0  0  0  0  0  0  0  0  0  0
   -2.5343   -1.0965    0.4990 H   0  0  0  0  0  0  0  0  0  0  0  0
   -0.9531   -1.6771    1.0570 H   0  0  0  0  0  0  0  0  0  0  0  0
   -0.9957    0.8367    1.0243 H   0  0  0  0  0  0  0  0  0  0  0  0
   -2.6774    1.1301   -0.7973 H   0  0  0  0  0  0  0  0  0  0  0  0
   -1.1770    2.0185   -1.1444 H   0  0  0  0  0  0  0  0  0  0  0  0
   -1.5014    0.5061   -1.9788 H   0  0  0  0  0  0  0  0  0  0  0  0
    3.4865   -0.1798    1.0071 H   0  0  0  0  0  0  0  0  0  0  0  0
    2.8653   -0.9243   -0.4804 H   0  0  0  0  0  0  0  0  0  0  0  0
    3.0199    0.8621   -0.3526 H   0  0  0  0  0  0  0  0  0  0  0  0
  1  2  1  0
  2  3  1  0
  2  4  1  0
  4  5  1  0
  5  6  2  0
  5  7  1  0
  1  8  1  0
  1  9  1  0
  1 10  1  0
  2 11  1  0
  3 12  1  0
  3 13  1  0
  3 14  1  0
  7 15  1  0
  7 16  1  0
  7 17  1  0
M  END
$$$$
