
     RDKit          3D

 22 24  0  0  0  0  0  0  0  0999 V2000
   -3.5746    0.1160    0.9349 C   0  0  0  0  0  0  0  0  0  0  0  0
   -3.6129    0.4354   -0.4240 C   0  0  0  0  0  0  0  0  0  0  0  0
   -2.4288    0.5021   -1.1601 C   0  0  0  0  0  0  0  0  0  0  0  0
   -1.2103    0.2487   -0.5328 C   0  0  0  0  0  0  0  0  0  0  0  0
   -1.1721   -0.0694    0.8205 C   0  0  0  0  0  0  0  0  0  0  0  0
   -2.3520   -0.1371    1.5593 C   0  0  0  0  0  0  0  0  0  0  0  0
    0.0034   -0.3251    1.4740 O   0  0  0  0  0  0  0  0  0  0  0  0
    1.1473   -0.2497    0.7158 C   0  0  0  0  0  0  0  0  0  0  0  0
    2.3729   -0.5027    1.3384 C   0  0  0  0  0  0  0  0  0  0  0  0
    3.5591   -0.4375    0.6079 C   0  0  0  0  0  0  0  0  0  0  0  0
    3.5246   -0.1181   -0.7523 C   0  0  0  0  0  0  0  0  0  0  0  0
    2.3016    0.1377   -1.3880 C   0  0  0  0  0  0  0  0  0  0  0  0
    1.1123    0.0701   -0.6461 C   0  0  0  0  0  0  0  0  0  0  0  0
   -0.0750    0.3255   -1.2941 O   0  0  0  0  0  0  0  0  0  0  0  0
    2.2342    0.5359   -3.0747 Cl  0  0  0  0  0  0  0  0  0  0  0  0
    5.0368   -0.0569   -1.5893 Cl  0  0  0  0  0  0  0  0  0  0  0  0
    2.4644   -0.9008    3.0156 Cl  0  0  0  0  0  0  0  0  0  0  0  0
   -4.4976    0.0643    1.5073 H   0  0  0  0  0  0  0  0  0  0  0  0
   -4.5658    0.6324   -0.9094 H   0  0  0  0  0  0  0  0  0  0  0  0
   -2.4571    0.7505   -2.2176 H   0  0  0  0  0  0  0  0  0  0  0  0
   -2.3207   -0.3858    2.6166 H   0  0  0  0  0  0  0  0  0  0  0  0
    4.5101   -0.6353    1.0978 H   0  0  0  0  0  0  0  0  0  0  0  0
  1  2  2  0
  2  3  1  0
  3  4  2  0
  4  5  1  0
  5  6  2  0
  5  7  1  0
  7  8  1  0
  8  9  2  0
  9 10  1  0
 10 11  2  0
 11 12  1  0
 12 13  2  0
 13 14  1  0
 12 15  1  0
 11 16  1  0
  9 17  1  0
  6  1  1  0
 14  4  1  0
 13  8  1  0
  1 18  1  0
  2 19  1  0
  3 20  1  0
  6 21  1  0
 10 22  1  0
M  END
$$$$
