
     RDKit          3D

 32 32  0  0  0  0  0  0  0  0999 V2000
    4.0513   -3.0334    1.4288 C   0  0  0  0  0  0  0  0  0  0  0  0
    2.9116   -2.2958    0.7435 C   0  0  0  0  0  0  0  0  0  0  0  0
    2.6670   -1.0423    1.4339 N   0  0  0  0  0  0  0  0  0  0  0  0
    1.6933   -0.2389    0.8500 C   0  0  0  0  0  0  0  0  0  0  0  0
    0.6303   -0.7847    0.2736 N   0  0  0  0  0  0  0  0  0  0  0  0
   -0.2536    0.0569   -0.2404 C   0  0  0  0  0  0  0  0  0  0  0  0
   -0.1297    1.3734   -0.2134 N   0  0  0  0  0  0  0  0  0  0  0  0
    0.9707    1.8213    0.3772 C   0  0  0  0  0  0  0  0  0  0  0  0
    1.9119    1.0619    0.9252 N   0  0  0  0  0  0  0  0  0  0  0  0
    1.2386    3.5794    0.4709 S   0  0  0  0  0  0  0  0  0  0  0  0
   -0.0873    4.1686   -0.6100 C   0  0  0  0  0  0  0  0  0  0  0  0
   -1.3563   -0.5315   -0.8396 N   0  0  0  0  0  0  0  0  0  0  0  0
   -2.6211    0.1898   -0.7818 C   0  0  0  0  0  0  0  0  0  0  0  0
   -3.2175    0.1331    0.6247 C   0  0  0  0  0  0  0  0  0  0  0  0
   -3.5797   -0.4547   -1.7839 C   0  0  0  0  0  0  0  0  0  0  0  0
    3.8104   -3.2410    2.4769 H   0  0  0  0  0  0  0  0  0  0  0  0
    4.2459   -3.9859    0.9263 H   0  0  0  0  0  0  0  0  0  0  0  0
    4.9721   -2.4408    1.4079 H   0  0  0  0  0  0  0  0  0  0  0  0
    2.0200   -2.9337    0.7661 H   0  0  0  0  0  0  0  0  0  0  0  0
    3.1809   -2.1148   -0.3042 H   0  0  0  0  0  0  0  0  0  0  0  0
    3.4813   -0.4484    1.5577 H   0  0  0  0  0  0  0  0  0  0  0  0
    0.0175    3.7536   -1.6164 H   0  0  0  0  0  0  0  0  0  0  0  0
   -0.0283    5.2582   -0.6817 H   0  0  0  0  0  0  0  0  0  0  0  0
   -1.0679    3.9067   -0.2027 H   0  0  0  0  0  0  0  0  0  0  0  0
   -1.3845   -1.4968   -0.5278 H   0  0  0  0  0  0  0  0  0  0  0  0
   -2.4906    1.2369   -1.0822 H   0  0  0  0  0  0  0  0  0  0  0  0
   -4.1911    0.6337    0.6541 H   0  0  0  0  0  0  0  0  0  0  0  0
   -3.3570   -0.9017    0.9572 H   0  0  0  0  0  0  0  0  0  0  0  0
   -2.5673    0.6287    1.3532 H   0  0  0  0  0  0  0  0  0  0  0  0
   -3.7615   -1.5084   -1.5435 H   0  0  0  0  0  0  0  0  0  0  0  0
   -3.1655   -0.4141   -2.7975 H   0  0  0  0  0  0  0  0  0  0  0  0
   -4.5437    0.0646   -1.7918 H   0  0  0  0  0  0  0  0  0  0  0  0
  1  2  1  0
  2  3  1  0
  3  4  1  0
  4  5  2  0
  5  6  1  0
  6  7  2  0
  7  8  1  0
  8  9  2  0
  8 10  1  0
 10 11  1  0
  6 12  1  0
 12 13  1  0
 13 14  1  0
 13 15  1  0
  9  4  1  0
  1 16  1  0
  1 17  1  0
  1 18  1  0
  2 19  1  0
  2 20  1  0
  3 21  1  0
 11 22  1  0
 11 23  1  0
 11 24  1  0
 12 25  1  0
 13 26  1  0
 14 27  1  0
 14 28  1  0
 14 29  1  0
 15 30  1  0
 15 31  1  0
 15 32  1  0
M  END
$$$$
