
     RDKit          3D

 14 14  0  0  0  0  0  0  0  0999 V2000
   -1.0923   -0.4726    0.0709 C   0  0  0  0  0  0  0  0  0  0  0  0
   -0.6701    0.9843   -0.0614 C   0  0  0  0  0  0  0  0  0  0  0  0
    0.7497    0.9206   -0.6103 C   0  0  0  0  0  0  0  0  0  0  0  0
    1.2546   -0.3642   -0.0068 C   0  0  0  0  0  0  0  0  0  0  0  0
    2.4304   -0.7056   -0.0131 O   0  0  0  0  0  0  0  0  0  0  0  0
    0.1462   -1.1807    0.6055 C   0  0  0  0  0  0  0  0  0  0  0  0
   -1.3593   -0.8745   -0.9142 H   0  0  0  0  0  0  0  0  0  0  0  0
   -1.9552   -0.5976    0.7315 H   0  0  0  0  0  0  0  0  0  0  0  0
   -1.3384    1.5538   -0.7138 H   0  0  0  0  0  0  0  0  0  0  0  0
   -0.6705    1.4638    0.9252 H   0  0  0  0  0  0  0  0  0  0  0  0
    1.3492    1.7747   -0.2888 H   0  0  0  0  0  0  0  0  0  0  0  0
    0.7537    0.8277   -1.7000 H   0  0  0  0  0  0  0  0  0  0  0  0
    0.2101   -1.1076    1.6948 H   0  0  0  0  0  0  0  0  0  0  0  0
    0.1919   -2.2221    0.2805 H   0  0  0  0  0  0  0  0  0  0  0  0
  1  2  1  0
  2  3  1  0
  3  4  1  0
  4  5  2  0
  4  6  1  0
  6  1  1  0
  1  7  1  0
  1  8  1  0
  2  9  1  0
  2 10  1  0
  3 11  1  0
  3 12  1  0
  6 13  1  0
  6 14  1  0
M  END
$$$$
