
     RDKit          3D

 24 25  0  0  0  0  0  0  0  0999 V2000
    3.9940   -0.1308   -0.4040 C   0  0  0  0  0  0  0  0  0  0  0  0
    2.5335    0.1425   -0.1998 C   0  0  0  0  0  0  0  0  0  0  0  0
    2.0751    1.4500   -0.0198 C   0  0  0  0  0  0  0  0  0  0  0  0
    0.7108    1.7055    0.1389 C   0  0  0  0  0  0  0  0  0  0  0  0
   -0.2249    0.6600    0.1105 C   0  0  0  0  0  0  0  0  0  0  0  0
   -1.6007    0.9017    0.2688 C   0  0  0  0  0  0  0  0  0  0  0  0
   -2.5293   -0.1477    0.2446 C   0  0  0  0  0  0  0  0  0  0  0  0
   -2.0738   -1.4516    0.0336 C   0  0  0  0  0  0  0  0  0  0  0  0
   -0.7095   -1.7071   -0.1252 C   0  0  0  0  0  0  0  0  0  0  0  0
    0.2272   -0.6628   -0.0865 C   0  0  0  0  0  0  0  0  0  0  0  0
    1.6030   -0.9045   -0.2447 C   0  0  0  0  0  0  0  0  0  0  0  0
   -3.9961    0.1334    0.3817 C   0  0  0  0  0  0  0  0  0  0  0  0
    4.2351   -0.0983   -1.4709 H   0  0  0  0  0  0  0  0  0  0  0  0
    4.6077    0.6095    0.1201 H   0  0  0  0  0  0  0  0  0  0  0  0
    4.2657   -1.1153   -0.0087 H   0  0  0  0  0  0  0  0  0  0  0  0
    2.7763    2.2811   -0.0004 H   0  0  0  0  0  0  0  0  0  0  0  0
    0.3825    2.7322    0.2831 H   0  0  0  0  0  0  0  0  0  0  0  0
   -1.9539    1.9210    0.4134 H   0  0  0  0  0  0  0  0  0  0  0  0
   -2.7771   -2.2801   -0.0081 H   0  0  0  0  0  0  0  0  0  0  0  0
   -0.3825   -2.7323   -0.2824 H   0  0  0  0  0  0  0  0  0  0  0  0
    1.9548   -1.9220   -0.4044 H   0  0  0  0  0  0  0  0  0  0  0  0
   -4.5182   -0.7200    0.8270 H   0  0  0  0  0  0  0  0  0  0  0  0
   -4.1688    0.9955    1.0345 H   0  0  0  0  0  0  0  0  0  0  0  0
   -4.4309    0.3401   -0.6011 H   0  0  0  0  0  0  0  0  0  0  0  0
  1  2  1  0
  2  3  2  0
  3  4  1  0
  4  5  2  0
  5  6  1  0
  6  7  2  0
  7  8  1  0
  8  9  2  0
  9 10  1  0
 10 11  2  0
  7 12  1  0
 11  2  1  0
 10  5  1  0
  1 13  1  0
  1 14  1  0
  1 15  1  0
  3 16  1  0
  4 17  1  0
  6 18  1  0
  8 19  1  0
  9 20  1  0
 11 21  1  0
 12 22  1  0
 12 23  1  0
 12 24  1  0
M  END
$$$$
