
     RDKit          3D

 15 14  0  0  0  0  0  0  0  0999 V2000
   -2.1678   -0.3918   -0.2840 C   0  0  0  0  0  0  0  0  0  0  0  0
   -0.7001   -0.7842   -0.3434 C   0  0  0  0  0  0  0  0  0  0  0  0
    0.2103    0.4428   -0.2963 C   0  0  0  0  0  0  0  0  0  0  0  0
    1.6847    0.0446   -0.3562 C   0  0  0  0  0  0  0  0  0  0  0  0
    2.5538    1.2279   -0.3106 C   0  0  0  0  0  0  0  0  0  0  0  0
    3.2420    2.1615   -0.2746 N   0  0  0  0  0  0  0  0  0  0  0  0
   -2.3925    0.1479    0.6415 H   0  0  0  0  0  0  0  0  0  0  0  0
   -2.4371    0.2489   -1.1298 H   0  0  0  0  0  0  0  0  0  0  0  0
   -2.8004   -1.2842   -0.3190 H   0  0  0  0  0  0  0  0  0  0  0  0
   -0.5162   -1.3493   -1.2645 H   0  0  0  0  0  0  0  0  0  0  0  0
   -0.4718   -1.4498    0.4971 H   0  0  0  0  0  0  0  0  0  0  0  0
   -0.0281    1.1105   -1.1343 H   0  0  0  0  0  0  0  0  0  0  0  0
    0.0162    1.0102    0.6231 H   0  0  0  0  0  0  0  0  0  0  0  0
    1.9257   -0.6177    0.4833 H   0  0  0  0  0  0  0  0  0  0  0  0
    1.8813   -0.5173   -1.2765 H   0  0  0  0  0  0  0  0  0  0  0  0
  1  2  1  0
  2  3  1  0
  3  4  1  0
  4  5  1  0
  5  6  3  0
  1  7  1  0
  1  8  1  0
  1  9  1  0
  2 10  1  0
  2 11  1  0
  3 12  1  0
  3 13  1  0
  4 14  1  0
  4 15  1  0
M  END
$$$$
