
     RDKit          3D

  5  4  0  0  0  0  0  0  0  0999 V2000
   -0.0023   -0.0001    0.1151 C   0  0  0  0  0  0  0  0  0  0  0  0
   -1.4985   -1.0936   -0.4726 Br  0  0  0  0  0  0  0  0  0  0  0  0
   -0.1847    1.8532   -0.4429 Br  0  0  0  0  0  0  0  0  0  0  0  0
    1.7100   -0.7582   -0.4073 Br  0  0  0  0  0  0  0  0  0  0  0  0
   -0.0244   -0.0013    1.2076 H   0  0  0  0  0  0  0  0  0  0  0  0
  1  2  1  0
  1  3  1  0
  1  4  1  0
  1  5  1  0
M  END
$$$$
