
     RDKit          3D

 12 12  0  0  0  0  0  0  0  0999 V2000
    0.3185   -1.3045   -0.0322 C   0  0  0  0  0  0  0  0  0  0  0  0
    1.2962   -0.3885   -0.0601 C   0  0  0  0  0  0  0  0  0  0  0  0
    0.8937    1.0517   -0.0223 C   0  0  0  0  0  0  0  0  0  0  0  0
    1.7001    1.9765   -0.0428 O   0  0  0  0  0  0  0  0  0  0  0  0
   -0.4549    1.2965    0.0379 N   0  0  0  0  0  0  0  0  0  0  0  0
   -1.4366    0.3483    0.0654 C   0  0  0  0  0  0  0  0  0  0  0  0
   -2.6272    0.6329    0.1195 O   0  0  0  0  0  0  0  0  0  0  0  0
   -1.0020   -0.9480    0.0284 N   0  0  0  0  0  0  0  0  0  0  0  0
    3.2711   -0.8981   -0.1504 I   0  0  0  0  0  0  0  0  0  0  0  0
    0.5165   -2.3720   -0.0560 H   0  0  0  0  0  0  0  0  0  0  0  0
   -0.7468    2.2611    0.0641 H   0  0  0  0  0  0  0  0  0  0  0  0
   -1.7285   -1.6559    0.0486 H   0  0  0  0  0  0  0  0  0  0  0  0
  1  2  2  0
  2  3  1  0
  3  4  2  0
  3  5  1  0
  5  6  1  0
  6  7  2  0
  6  8  1  0
  2  9  1  0
  8  1  1  0
  1 10  1  0
  5 11  1  0
  8 12  1  0
M  END
$$$$
