
     RDKit          3D

 15 14  0  0  0  0  0  0  0  0999 V2000
   -2.1994    0.0215   -0.1968 C   0  0  0  0  0  0  0  0  0  0  0  0
   -0.7970    0.5815   -0.3734 C   0  0  0  0  0  0  0  0  0  0  0  0
    0.2672   -0.4618   -0.0455 C   0  0  0  0  0  0  0  0  0  0  0  0
    1.6729    0.0950   -0.2212 C   0  0  0  0  0  0  0  0  0  0  0  0
    2.6129   -0.9215    0.0983 O   0  0  0  0  0  0  0  0  0  0  0  0
   -2.9456    0.7854   -0.4369 H   0  0  0  0  0  0  0  0  0  0  0  0
   -2.3658   -0.8354   -0.8574 H   0  0  0  0  0  0  0  0  0  0  0  0
   -2.3652   -0.3028    0.8355 H   0  0  0  0  0  0  0  0  0  0  0  0
   -0.6744    1.4556    0.2766 H   0  0  0  0  0  0  0  0  0  0  0  0
   -0.6749    0.9260   -1.4069 H   0  0  0  0  0  0  0  0  0  0  0  0
    0.1437   -1.3447   -0.6853 H   0  0  0  0  0  0  0  0  0  0  0  0
    0.1442   -0.8193    0.9845 H   0  0  0  0  0  0  0  0  0  0  0  0
    1.8416    0.9471    0.4450 H   0  0  0  0  0  0  0  0  0  0  0  0
    1.8411    0.4122   -1.2553 H   0  0  0  0  0  0  0  0  0  0  0  0
    3.4987   -0.5388   -0.0223 H   0  0  0  0  0  0  0  0  0  0  0  0
  1  2  1  0
  2  3  1  0
  3  4  1  0
  4  5  1  0
  1  6  1  0
  1  7  1  0
  1  8  1  0
  2  9  1  0
  2 10  1  0
  3 11  1  0
  3 12  1  0
  4 13  1  0
  4 14  1  0
  5 15  1  0
M  END
$$$$
