
     RDKit          3D

 22 23  0  0  0  0  0  0  0  0999 V2000
   -1.4193   -0.9445   -0.8321 C   0  0  0  0  0  0  0  0  0  0  0  0
   -2.8103   -0.9394   -0.9280 C   0  0  0  0  0  0  0  0  0  0  0  0
   -3.5594    0.0171   -0.2396 C   0  0  0  0  0  0  0  0  0  0  0  0
   -2.9200    0.9817    0.5527 C   0  0  0  0  0  0  0  0  0  0  0  0
   -1.5144    0.9745    0.6482 C   0  0  0  0  0  0  0  0  0  0  0  0
   -0.7487    0.0056   -0.0435 C   0  0  0  0  0  0  0  0  0  0  0  0
    0.7251   -0.0474    0.0304 C   0  0  0  0  0  0  0  0  0  0  0  0
    1.4728    0.6670   -0.9193 C   0  0  0  0  0  0  0  0  0  0  0  0
    2.8701    0.6618   -0.8905 C   0  0  0  0  0  0  0  0  0  0  0  0
    3.5567   -0.0639    0.0922 C   0  0  0  0  0  0  0  0  0  0  0  0
    2.8269   -0.7904    1.0513 C   0  0  0  0  0  0  0  0  0  0  0  0
    1.4166   -0.7822    1.0187 C   0  0  0  0  0  0  0  0  0  0  0  0
    0.4974   -1.6838    2.1927 Cl  0  0  0  0  0  0  0  0  0  0  0  0
    3.6634   -1.7048    2.2754 Cl  0  0  0  0  0  0  0  0  0  0  0  0
    5.2954   -0.0631    0.1115 Cl  0  0  0  0  0  0  0  0  0  0  0  0
    3.6810    1.5794   -2.1129 Cl  0  0  0  0  0  0  0  0  0  0  0  0
   -0.6875    2.1648    1.6163 Cl  0  0  0  0  0  0  0  0  0  0  0  0
   -3.8595    2.1732    1.4005 Cl  0  0  0  0  0  0  0  0  0  0  0  0
   -5.2787   -0.0535   -0.4204 Cl  0  0  0  0  0  0  0  0  0  0  0  0
   -0.8584   -1.7057   -1.3740 H   0  0  0  0  0  0  0  0  0  0  0  0
   -3.3066   -1.6893   -1.5414 H   0  0  0  0  0  0  0  0  0  0  0  0
    0.9575    1.2432   -1.6883 H   0  0  0  0  0  0  0  0  0  0  0  0
  1  2  2  0
  2  3  1  0
  3  4  2  0
  4  5  1  0
  5  6  2  0
  6  7  1  0
  7  8  2  0
  8  9  1  0
  9 10  2  0
 10 11  1  0
 11 12  2  0
 12 13  1  0
 11 14  1  0
 10 15  1  0
  9 16  1  0
  5 17  1  0
  4 18  1  0
  3 19  1  0
  6  1  1  0
 12  7  1  0
  1 20  1  0
  2 21  1  0
  8 22  1  0
M  END
$$$$
