
     RDKit          3D

 12 11  0  0  0  0  0  0  0  0999 V2000
   -1.8756   -0.3352   -0.9987 C   0  0  0  0  0  0  0  0  0  0  0  0
   -0.4959   -0.0251   -1.0516 O   0  0  0  0  0  0  0  0  0  0  0  0
    0.3142   -0.0162    0.3613 S   0  0  0  0  0  6  0  0  0  0  0  0
   -0.1707    1.0861    1.1643 O   0  0  0  0  0  0  0  0  0  0  0  0
    0.3701   -1.3701    0.8698 O   0  0  0  0  0  0  0  0  0  0  0  0
    1.9069    0.4133   -0.2965 C   0  0  0  0  0  0  0  0  0  0  0  0
   -2.0271   -1.3407   -0.5954 H   0  0  0  0  0  0  0  0  0  0  0  0
   -2.2784   -0.3021   -2.0144 H   0  0  0  0  0  0  0  0  0  0  0  0
   -2.4098    0.3976   -0.3870 H   0  0  0  0  0  0  0  0  0  0  0  0
    1.8347    1.3836   -0.7914 H   0  0  0  0  0  0  0  0  0  0  0  0
    2.2187   -0.3604   -1.0005 H   0  0  0  0  0  0  0  0  0  0  0  0
    2.6129    0.4692    0.5345 H   0  0  0  0  0  0  0  0  0  0  0  0
  1  2  1  0
  2  3  1  0
  3  4  2  0
  3  5  2  0
  3  6  1  0
  1  7  1  0
  1  8  1  0
  1  9  1  0
  6 10  1  0
  6 11  1  0
  6 12  1  0
M  END
$$$$
