
     RDKit          3D

 25 24  0  0  0  0  0  0  0  0999 V2000
   -4.2408    0.1032   -0.0049 C   0  0  0  0  0  0  0  0  0  0  0  0
   -2.9287   -0.5694    0.3660 C   0  0  0  0  0  0  0  0  0  0  0  0
   -1.7269    0.2558   -0.0932 C   0  0  0  0  0  0  0  0  0  0  0  0
   -0.4091   -0.4243    0.2818 C   0  0  0  0  0  0  0  0  0  0  0  0
    0.7937    0.4015   -0.1777 C   0  0  0  0  0  0  0  0  0  0  0  0
    2.1122   -0.2785    0.1974 C   0  0  0  0  0  0  0  0  0  0  0  0
    3.3109    0.5492   -0.2631 C   0  0  0  0  0  0  0  0  0  0  0  0
    4.5559   -0.1111    0.1110 N   0  0  0  0  0  0  0  0  0  0  0  0
   -4.3243    0.2290   -1.0892 H   0  0  0  0  0  0  0  0  0  0  0  0
   -4.3221    1.0894    0.4630 H   0  0  0  0  0  0  0  0  0  0  0  0
   -5.0866   -0.5038    0.3328 H   0  0  0  0  0  0  0  0  0  0  0  0
   -2.8934   -1.5652   -0.0910 H   0  0  0  0  0  0  0  0  0  0  0  0
   -2.8911   -0.7095    1.4526 H   0  0  0  0  0  0  0  0  0  0  0  0
   -1.7693    1.2521    0.3634 H   0  0  0  0  0  0  0  0  0  0  0  0
   -1.7715    0.3964   -1.1801 H   0  0  0  0  0  0  0  0  0  0  0  0
   -0.3646   -0.5647    1.3687 H   0  0  0  0  0  0  0  0  0  0  0  0
   -0.3668   -1.4205   -0.1750 H   0  0  0  0  0  0  0  0  0  0  0  0
    0.7492    0.5419   -1.2646 H   0  0  0  0  0  0  0  0  0  0  0  0
    0.7514    1.3978    0.2792 H   0  0  0  0  0  0  0  0  0  0  0  0
    2.1542   -0.4195    1.2849 H   0  0  0  0  0  0  0  0  0  0  0  0
    2.1509   -1.2758   -0.2590 H   0  0  0  0  0  0  0  0  0  0  0  0
    3.2837    0.6836   -1.3500 H   0  0  0  0  0  0  0  0  0  0  0  0
    3.2819    1.5427    0.1969 H   0  0  0  0  0  0  0  0  0  0  0  0
    4.6069   -1.0261   -0.3350 H   0  0  0  0  0  0  0  0  0  0  0  0
    5.3442    0.4259   -0.2478 H   0  0  0  0  0  0  0  0  0  0  0  0
  1  2  1  0
  2  3  1  0
  3  4  1  0
  4  5  1  0
  5  6  1  0
  6  7  1  0
  7  8  1  0
  1  9  1  0
  1 10  1  0
  1 11  1  0
  2 12  1  0
  2 13  1  0
  3 14  1  0
  3 15  1  0
  4 16  1  0
  4 17  1  0
  5 18  1  0
  5 19  1  0
  6 20  1  0
  6 21  1  0
  7 22  1  0
  7 23  1  0
  8 24  1  0
  8 25  1  0
M  END
$$$$
