
     RDKit          3D

 11 10  0  0  0  0  0  0  0  0999 V2000
   -1.2651    0.1852   -0.1998 C   0  0  0  0  0  0  0  0  0  0  0  0
    0.0246   -0.6120   -0.2970 C   0  0  0  0  0  0  0  0  0  0  0  0
    1.2465    0.2767   -0.1374 C   0  0  0  0  0  0  0  0  0  0  0  0
   -1.3471    0.6817    0.7724 H   0  0  0  0  0  0  0  0  0  0  0  0
   -2.1294   -0.4759   -0.3176 H   0  0  0  0  0  0  0  0  0  0  0  0
   -1.3134    0.9502   -0.9813 H   0  0  0  0  0  0  0  0  0  0  0  0
    0.0672   -1.1200   -1.2668 H   0  0  0  0  0  0  0  0  0  0  0  0
    0.0336   -1.3871    0.4774 H   0  0  0  0  0  0  0  0  0  0  0  0
    1.2777    1.0446   -0.9170 H   0  0  0  0  0  0  0  0  0  0  0  0
    1.2439    0.7761    0.8367 H   0  0  0  0  0  0  0  0  0  0  0  0
    2.1614   -0.3195   -0.2111 H   0  0  0  0  0  0  0  0  0  0  0  0
  1  2  1  0
  2  3  1  0
  1  4  1  0
  1  5  1  0
  1  6  1  0
  2  7  1  0
  2  8  1  0
  3  9  1  0
  3 10  1  0
  3 11  1  0
M  END
$$$$
