
     RDKit          3D

 17 16  0  0  0  0  0  0  0  0999 V2000
   -2.5549   -0.1053    0.3949 C   0  0  0  0  0  0  0  0  0  0  0  0
   -1.2818   -0.4727   -0.3504 C   0  0  0  0  0  0  0  0  0  0  0  0
   -0.0567    0.2004    0.2680 C   0  0  0  0  0  0  0  0  0  0  0  0
    1.2226   -0.1718   -0.4848 C   0  0  0  0  0  0  0  0  0  0  0  0
    2.4443    0.5035    0.1371 C   0  0  0  0  0  0  0  0  0  0  0  0
    4.2223   -0.0264   -0.9255 I   0  0  0  0  0  0  0  0  0  0  0  0
   -2.5013   -0.4201    1.4420 H   0  0  0  0  0  0  0  0  0  0  0  0
   -2.7266    0.9756    0.3691 H   0  0  0  0  0  0  0  0  0  0  0  0
   -3.4182   -0.5973   -0.0639 H   0  0  0  0  0  0  0  0  0  0  0  0
   -1.3809   -0.1737   -1.4004 H   0  0  0  0  0  0  0  0  0  0  0  0
   -1.1568   -1.5617   -0.3334 H   0  0  0  0  0  0  0  0  0  0  0  0
    0.0353   -0.0989    1.3192 H   0  0  0  0  0  0  0  0  0  0  0  0
   -0.1887    1.2892    0.2522 H   0  0  0  0  0  0  0  0  0  0  0  0
    1.3487   -1.2617   -0.4708 H   0  0  0  0  0  0  0  0  0  0  0  0
    1.1249    0.1249   -1.5367 H   0  0  0  0  0  0  0  0  0  0  0  0
    2.5459    0.2039    1.1862 H   0  0  0  0  0  0  0  0  0  0  0  0
    2.3219    1.5922    0.1190 H   0  0  0  0  0  0  0  0  0  0  0  0
  1  2  1  0
  2  3  1  0
  3  4  1  0
  4  5  1  0
  5  6  1  0
  1  7  1  0
  1  8  1  0
  1  9  1  0
  2 10  1  0
  2 11  1  0
  3 12  1  0
  3 13  1  0
  4 14  1  0
  4 15  1  0
  5 16  1  0
  5 17  1  0
M  END
$$$$
