
     RDKit          3D

 17 16  0  0  0  0  0  0  0  0999 V2000
   -0.6560    2.0076   -0.7737 C   0  0  0  0  0  0  0  0  0  0  0  0
   -0.1410    0.9648    0.0406 O   0  0  0  0  0  0  0  0  0  0  0  0
    0.2102   -0.1820   -0.7302 C   0  0  0  0  0  0  0  0  0  0  0  0
   -0.9404   -0.8232   -1.2810 O   0  0  0  0  0  0  0  0  0  0  0  0
   -1.7815   -1.3765   -0.2789 C   0  0  0  0  0  0  0  0  0  0  0  0
    0.9737   -1.1049    0.0441 O   0  0  0  0  0  0  0  0  0  0  0  0
    2.2334   -0.5689    0.4160 C   0  0  0  0  0  0  0  0  0  0  0  0
    0.0894    2.3280   -1.5082 H   0  0  0  0  0  0  0  0  0  0  0  0
   -0.8928    2.8587   -0.1294 H   0  0  0  0  0  0  0  0  0  0  0  0
   -1.5740    1.6937   -1.2794 H   0  0  0  0  0  0  0  0  0  0  0  0
    0.8251    0.1288   -1.5844 H   0  0  0  0  0  0  0  0  0  0  0  0
   -1.2744   -2.1832    0.2587 H   0  0  0  0  0  0  0  0  0  0  0  0
   -2.1214   -0.6088    0.4224 H   0  0  0  0  0  0  0  0  0  0  0  0
   -2.6610   -1.8002   -0.7721 H   0  0  0  0  0  0  0  0  0  0  0  0
    2.8181   -0.3012   -0.4696 H   0  0  0  0  0  0  0  0  0  0  0  0
    2.1118    0.3029    1.0657 H   0  0  0  0  0  0  0  0  0  0  0  0
    2.7807   -1.3357    0.9712 H   0  0  0  0  0  0  0  0  0  0  0  0
  1  2  1  0
  2  3  1  0
  3  4  1  0
  4  5  1  0
  3  6  1  0
  6  7  1  0
  1  8  1  0
  1  9  1  0
  1 10  1  0
  3 11  1  0
  5 12  1  0
  5 13  1  0
  5 14  1  0
  7 15  1  0
  7 16  1  0
  7 17  1  0
M  END
$$$$
