
     RDKit          3D

 20 19  0  0  0  0  0  0  0  0999 V2000
   -2.0278   -1.7707   -0.0281 C   0  0  0  0  0  0  0  0  0  0  0  0
   -1.5137   -0.5289   -0.4682 O   0  0  0  0  0  0  0  0  0  0  0  0
   -0.2309    0.0648    0.3172 P   0  0  0  0  0  5  0  0  0  0  0  0
   -0.3513   -0.0264    1.8048 O   0  0  0  0  0  0  0  0  0  0  0  0
    1.1901   -0.6969   -0.4760 C   0  0  2  0  0  0  0  0  0  0  0  0
    2.4962   -0.4884    0.3017 C   0  0  0  0  0  0  0  0  0  0  0  0
    2.4814   -1.3571    1.8693 Cl  0  0  0  0  0  0  0  0  0  0  0  0
    2.8661    1.2400    0.5774 Cl  0  0  0  0  0  0  0  0  0  0  0  0
    3.8796   -1.1835   -0.6399 Cl  0  0  0  0  0  0  0  0  0  0  0  0
    1.2542   -0.1871   -1.8378 O   0  0  0  0  0  0  0  0  0  0  0  0
   -0.1982    1.5809   -0.2515 O   0  0  0  0  0  0  0  0  0  0  0  0
   -1.1531    2.4794    0.2825 C   0  0  0  0  0  0  0  0  0  0  0  0
   -2.4791   -1.6558    0.9609 H   0  0  0  0  0  0  0  0  0  0  0  0
   -1.2349   -2.5220    0.0108 H   0  0  0  0  0  0  0  0  0  0  0  0
   -2.7957   -2.1016   -0.7316 H   0  0  0  0  0  0  0  0  0  0  0  0
    0.9991   -1.7718   -0.5693 H   0  0  0  0  0  0  0  0  0  0  0  0
    1.0078    0.7620   -1.8029 H   0  0  0  0  0  0  0  0  0  0  0  0
   -1.0837    3.4260   -0.2592 H   0  0  0  0  0  0  0  0  0  0  0  0
   -2.1627    2.0768    0.1653 H   0  0  0  0  0  0  0  0  0  0  0  0
   -0.9434    2.6603    1.3400 H   0  0  0  0  0  0  0  0  0  0  0  0
  1  2  1  0
  2  3  1  0
  3  4  2  0
  3  5  1  0
  5  6  1  0
  6  7  1  0
  6  8  1  0
  6  9  1  0
  5 10  1  0
  3 11  1  0
 11 12  1  0
  1 13  1  0
  1 14  1  0
  1 15  1  0
  5 16  1  6
 10 17  1  0
 12 18  1  0
 12 19  1  0
 12 20  1  0
M  END
$$$$
