
     RDKit          3D

 15 14  0  0  0  0  0  0  0  0999 V2000
    2.1140   -0.4481   -0.0794 C   0  0  0  0  0  0  0  0  0  0  0  0
    0.7274   -0.3864    0.5415 C   0  0  0  0  0  0  0  0  0  0  0  0
   -0.3193    0.0867   -0.4690 C   0  0  0  0  0  0  0  0  0  0  0  0
   -1.7051    0.1439    0.1677 C   0  0  0  0  0  0  0  0  0  0  0  0
   -2.9430    0.7003   -1.0385 S   0  0  0  0  0  0  0  0  0  0  0  0
    2.1351   -1.1446   -0.9237 H   0  0  0  0  0  0  0  0  0  0  0  0
    2.4272    0.5374   -0.4387 H   0  0  0  0  0  0  0  0  0  0  0  0
    2.8456   -0.7883    0.6601 H   0  0  0  0  0  0  0  0  0  0  0  0
    0.4582   -1.3797    0.9191 H   0  0  0  0  0  0  0  0  0  0  0  0
    0.7486    0.2932    1.4014 H   0  0  0  0  0  0  0  0  0  0  0  0
   -0.3267   -0.5976   -1.3269 H   0  0  0  0  0  0  0  0  0  0  0  0
   -0.0351    1.0782   -0.8437 H   0  0  0  0  0  0  0  0  0  0  0  0
   -2.0012   -0.8443    0.5339 H   0  0  0  0  0  0  0  0  0  0  0  0
   -1.7122    0.8360    1.0158 H   0  0  0  0  0  0  0  0  0  0  0  0
   -2.4135    1.9131   -1.2565 H   0  0  0  0  0  0  0  0  0  0  0  0
  1  2  1  0
  2  3  1  0
  3  4  1  0
  4  5  1  0
  1  6  1  0
  1  7  1  0
  1  8  1  0
  2  9  1  0
  2 10  1  0
  3 11  1  0
  3 12  1  0
  4 13  1  0
  4 14  1  0
  5 15  1  0
M  END
$$$$
