
     RDKit          3D

  5  4  0  0  0  0  0  0  0  0999 V2000
   -0.0810    0.0052    0.0671 C   0  0  0  0  0  0  0  0  0  0  0  0
   -0.6938   -1.0432   -0.5347 F   0  0  0  0  0  0  0  0  0  0  0  0
   -0.5469    1.1309   -0.5268 F   0  0  0  0  0  0  0  0  0  0  0  0
    1.6641   -0.1119   -0.1340 Cl  0  0  0  0  0  0  0  0  0  0  0  0
   -0.3424    0.0190    1.1284 H   0  0  0  0  0  0  0  0  0  0  0  0
  1  2  1  0
  1  3  1  0
  1  4  1  0
  1  5  1  0
M  END
$$$$
