
     RDKit          3D

 25 25  0  0  0  0  0  0  0  0999 V2000
   -1.8267   -1.3163   -0.6082 C   0  0  0  0  0  0  0  0  0  0  0  0
   -1.2822   -0.2365    0.3516 C   0  0  0  0  0  0  0  0  0  0  0  0
   -2.2464    0.9691    0.2767 C   0  0  0  0  0  0  0  0  0  0  0  0
   -1.3324   -0.7714    1.7991 C   0  0  0  0  0  0  0  0  0  0  0  0
    0.1708    0.1045   -0.0239 C   0  0  0  0  0  0  0  0  0  0  0  0
    1.1619   -0.8989   -0.0003 C   0  0  0  0  0  0  0  0  0  0  0  0
    2.4920   -0.6248   -0.3355 C   0  0  0  0  0  0  0  0  0  0  0  0
    2.8511    0.6642   -0.7011 C   0  0  0  0  0  0  0  0  0  0  0  0
    1.9032    1.6751   -0.7352 C   0  0  0  0  0  0  0  0  0  0  0  0
    0.5736    1.3979   -0.3994 C   0  0  0  0  0  0  0  0  0  0  0  0
    4.1339    0.9797   -1.0359 O   0  0  0  0  0  0  0  0  0  0  0  0
   -2.8735   -1.5529   -0.3841 H   0  0  0  0  0  0  0  0  0  0  0  0
   -1.7766   -0.9792   -1.6504 H   0  0  0  0  0  0  0  0  0  0  0  0
   -1.2649   -2.2543   -0.5387 H   0  0  0  0  0  0  0  0  0  0  0  0
   -3.2668    0.6766    0.5525 H   0  0  0  0  0  0  0  0  0  0  0  0
   -1.9451    1.7700    0.9619 H   0  0  0  0  0  0  0  0  0  0  0  0
   -2.2938    1.3856   -0.7362 H   0  0  0  0  0  0  0  0  0  0  0  0
   -2.3624   -0.9895    2.1045 H   0  0  0  0  0  0  0  0  0  0  0  0
   -0.9233   -0.0386    2.5048 H   0  0  0  0  0  0  0  0  0  0  0  0
   -0.7603   -1.6979    1.9189 H   0  0  0  0  0  0  0  0  0  0  0  0
    0.9069   -1.9180    0.2827 H   0  0  0  0  0  0  0  0  0  0  0  0
    3.2223   -1.4267   -0.3040 H   0  0  0  0  0  0  0  0  0  0  0  0
    2.1938    2.6816   -1.0228 H   0  0  0  0  0  0  0  0  0  0  0  0
   -0.1311    2.2234   -0.4416 H   0  0  0  0  0  0  0  0  0  0  0  0
    4.6762    0.1774   -0.9657 H   0  0  0  0  0  0  0  0  0  0  0  0
  1  2  1  0
  2  3  1  0
  2  4  1  0
  2  5  1  0
  5  6  2  0
  6  7  1  0
  7  8  2  0
  8  9  1  0
  9 10  2  0
  8 11  1  0
 10  5  1  0
  1 12  1  0
  1 13  1  0
  1 14  1  0
  3 15  1  0
  3 16  1  0
  3 17  1  0
  4 18  1  0
  4 19  1  0
  4 20  1  0
  6 21  1  0
  7 22  1  0
  9 23  1  0
 10 24  1  0
 11 25  1  0
M  END
$$$$
