
     RDKit          3D

 15 15  0  0  0  0  0  0  0  0999 V2000
   -2.2195   -0.0865   -0.0210 C   0  0  0  0  0  0  0  0  0  0  0  0
   -0.7213   -0.0286    0.0180 C   0  0  0  0  0  0  0  0  0  0  0  0
    0.0353   -1.2065   -0.0178 C   0  0  0  0  0  0  0  0  0  0  0  0
    1.4301   -1.1513   -0.0133 C   0  0  0  0  0  0  0  0  0  0  0  0
    2.0801    0.0811    0.0165 C   0  0  0  0  0  0  0  0  0  0  0  0
    1.3358    1.2591    0.0374 C   0  0  0  0  0  0  0  0  0  0  0  0
   -0.0592    1.2052    0.0329 C   0  0  0  0  0  0  0  0  0  0  0  0
   -2.6572    0.7677    0.5062 H   0  0  0  0  0  0  0  0  0  0  0  0
   -2.5883   -0.9936    0.4691 H   0  0  0  0  0  0  0  0  0  0  0  0
   -2.5673   -0.0782   -1.0586 H   0  0  0  0  0  0  0  0  0  0  0  0
   -0.4582   -2.1752   -0.0487 H   0  0  0  0  0  0  0  0  0  0  0  0
    2.0094   -2.0705   -0.0360 H   0  0  0  0  0  0  0  0  0  0  0  0
    3.1658    0.1236    0.0191 H   0  0  0  0  0  0  0  0  0  0  0  0
    1.8414    2.2209    0.0544 H   0  0  0  0  0  0  0  0  0  0  0  0
   -0.6269    2.1328    0.0420 H   0  0  0  0  0  0  0  0  0  0  0  0
  1  2  1  0
  2  3  2  0
  3  4  1  0
  4  5  2  0
  5  6  1  0
  6  7  2  0
  7  2  1  0
  1  8  1  0
  1  9  1  0
  1 10  1  0
  3 11  1  0
  4 12  1  0
  5 13  1  0
  6 14  1  0
  7 15  1  0
M  END
$$$$
