
     RDKit          3D

 26 25  0  0  0  0  0  0  0  0999 V2000
   -4.7725    0.0790    0.2738 C   0  0  0  0  0  0  0  0  0  0  0  0
   -3.4636    0.5796   -0.3160 C   0  0  0  0  0  0  0  0  0  0  0  0
   -2.2620   -0.1390    0.2969 C   0  0  0  0  0  0  0  0  0  0  0  0
   -0.9496    0.3667   -0.2980 C   0  0  0  0  0  0  0  0  0  0  0  0
    0.2548   -0.3452    0.3081 C   0  0  0  0  0  0  0  0  0  0  0  0
    1.4384    0.1865   -0.3024 O   0  0  0  0  0  0  0  0  0  0  0  0
    2.5989   -0.3672    0.1520 C   0  0  0  0  0  0  0  0  0  0  0  0
    2.6742   -1.2416    1.0029 O   0  0  0  0  0  0  0  0  0  0  0  0
    3.7684    0.2691   -0.5601 C   0  0  0  0  0  0  0  0  0  0  0  0
    5.0970   -0.3041   -0.0992 C   0  0  0  0  0  0  0  0  0  0  0  0
   -5.6182    0.6062   -0.1786 H   0  0  0  0  0  0  0  0  0  0  0  0
   -4.8057    0.2479    1.3548 H   0  0  0  0  0  0  0  0  0  0  0  0
   -4.9017   -0.9922    0.0890 H   0  0  0  0  0  0  0  0  0  0  0  0
   -3.3806    1.6588   -0.1423 H   0  0  0  0  0  0  0  0  0  0  0  0
   -3.4761    0.4255   -1.4012 H   0  0  0  0  0  0  0  0  0  0  0  0
   -2.2566    0.0149    1.3829 H   0  0  0  0  0  0  0  0  0  0  0  0
   -2.3520   -1.2183    0.1241 H   0  0  0  0  0  0  0  0  0  0  0  0
   -0.9456    0.2240   -1.3859 H   0  0  0  0  0  0  0  0  0  0  0  0
   -0.8509    1.4476   -0.1369 H   0  0  0  0  0  0  0  0  0  0  0  0
    0.1944   -1.4220    0.1116 H   0  0  0  0  0  0  0  0  0  0  0  0
    0.2913   -0.1698    1.3897 H   0  0  0  0  0  0  0  0  0  0  0  0
    3.6536    0.0990   -1.6358 H   0  0  0  0  0  0  0  0  0  0  0  0
    3.7501    1.3461   -0.3628 H   0  0  0  0  0  0  0  0  0  0  0  0
    5.9243    0.1752   -0.6316 H   0  0  0  0  0  0  0  0  0  0  0  0
    5.1470   -1.3817   -0.2877 H   0  0  0  0  0  0  0  0  0  0  0  0
    5.2426   -0.1451    0.9744 H   0  0  0  0  0  0  0  0  0  0  0  0
  1  2  1  0
  2  3  1  0
  3  4  1  0
  4  5  1  0
  5  6  1  0
  6  7  1  0
  7  8  2  0
  7  9  1  0
  9 10  1  0
  1 11  1  0
  1 12  1  0
  1 13  1  0
  2 14  1  0
  2 15  1  0
  3 16  1  0
  3 17  1  0
  4 18  1  0
  4 19  1  0
  5 20  1  0
  5 21  1  0
  9 22  1  0
  9 23  1  0
 10 24  1  0
 10 25  1  0
 10 26  1  0
M  END
$$$$
