
     RDKit          3D

 38 38  0  0  0  0  0  0  0  0999 V2000
   -2.6255   -1.6258    1.7190 C   0  0  0  0  0  0  0  0  0  0  0  0
   -1.9002   -1.9491    0.4195 C   0  0  0  0  0  0  0  0  0  0  0  0
   -1.6284   -0.7110   -0.4092 C   0  0  0  0  0  0  0  0  0  0  0  0
   -2.7101   -0.1292   -1.0917 C   0  0  0  0  0  0  0  0  0  0  0  0
   -2.5403    1.0236   -1.8524 C   0  0  0  0  0  0  0  0  0  0  0  0
   -1.2857    1.6190   -1.9406 C   0  0  0  0  0  0  0  0  0  0  0  0
   -0.1766    1.0683   -1.2768 C   0  0  0  0  0  0  0  0  0  0  0  0
   -0.3532   -0.1094   -0.5160 C   0  0  0  0  0  0  0  0  0  0  0  0
    0.7579   -0.6969    0.1358 N   0  0  0  0  0  0  0  0  0  0  0  0
    0.9933   -0.3195    1.5163 C   0  0  0  0  0  0  0  0  0  0  0  0
    2.0866    0.5933    1.5447 O   0  0  0  0  0  0  0  0  0  0  0  0
    2.4807    0.8856    2.8764 C   0  0  0  0  0  0  0  0  0  0  0  0
    1.5214   -1.7198   -0.4191 C   0  0  0  0  0  0  0  0  0  0  0  0
    2.3665   -2.3365    0.2399 O   0  0  0  0  0  0  0  0  0  0  0  0
    1.2982   -2.0774   -1.8802 C   0  0  0  0  0  0  0  0  0  0  0  0
    0.3277   -3.5605   -1.9835 Cl  0  0  0  0  0  0  0  0  0  0  0  0
    1.1541    1.7770   -1.4110 C   0  0  0  0  0  0  0  0  0  0  0  0
    1.2136    3.0495   -0.5768 C   0  0  0  0  0  0  0  0  0  0  0  0
   -3.6004   -1.1637    1.5312 H   0  0  0  0  0  0  0  0  0  0  0  0
   -2.7939   -2.5419    2.2941 H   0  0  0  0  0  0  0  0  0  0  0  0
   -2.0430   -0.9380    2.3400 H   0  0  0  0  0  0  0  0  0  0  0  0
   -0.9775   -2.4872    0.6550 H   0  0  0  0  0  0  0  0  0  0  0  0
   -2.5043   -2.6469   -0.1740 H   0  0  0  0  0  0  0  0  0  0  0  0
   -3.7001   -0.5778   -1.0308 H   0  0  0  0  0  0  0  0  0  0  0  0
   -3.3881    1.4612   -2.3736 H   0  0  0  0  0  0  0  0  0  0  0  0
   -1.1732    2.5236   -2.5355 H   0  0  0  0  0  0  0  0  0  0  0  0
    1.2282   -1.2128    2.1069 H   0  0  0  0  0  0  0  0  0  0  0  0
    0.1060    0.1645    1.9403 H   0  0  0  0  0  0  0  0  0  0  0  0
    2.8291   -0.0204    3.3816 H   0  0  0  0  0  0  0  0  0  0  0  0
    3.3045    1.6035    2.8421 H   0  0  0  0  0  0  0  0  0  0  0  0
    1.6512    1.3327    3.4329 H   0  0  0  0  0  0  0  0  0  0  0  0
    2.2713   -2.2696   -2.3429 H   0  0  0  0  0  0  0  0  0  0  0  0
    0.8106   -1.2935   -2.4594 H   0  0  0  0  0  0  0  0  0  0  0  0
    1.9869    1.1209   -1.1399 H   0  0  0  0  0  0  0  0  0  0  0  0
    1.3163    2.0255   -2.4677 H   0  0  0  0  0  0  0  0  0  0  0  0
    1.0188    2.8463    0.4808 H   0  0  0  0  0  0  0  0  0  0  0  0
    2.2034    3.5094   -0.6603 H   0  0  0  0  0  0  0  0  0  0  0  0
    0.4741    3.7832   -0.9151 H   0  0  0  0  0  0  0  0  0  0  0  0
  1  2  1  0
  2  3  1  0
  3  4  2  0
  4  5  1  0
  5  6  2  0
  6  7  1  0
  7  8  2  0
  8  9  1  0
  9 10  1  0
 10 11  1  0
 11 12  1  0
  9 13  1  0
 13 14  2  0
 13 15  1  0
 15 16  1  0
  7 17  1  0
 17 18  1  0
  8  3  1  0
  1 19  1  0
  1 20  1  0
  1 21  1  0
  2 22  1  0
  2 23  1  0
  4 24  1  0
  5 25  1  0
  6 26  1  0
 10 27  1  0
 10 28  1  0
 12 29  1  0
 12 30  1  0
 12 31  1  0
 15 32  1  0
 15 33  1  0
 17 34  1  0
 17 35  1  0
 18 36  1  0
 18 37  1  0
 18 38  1  0
M  END
$$$$
