
     RDKit          3D

  8  7  0  0  0  0  0  0  0  0999 V2000
   -0.7145    0.2720    0.0276 C   0  0  0  0  0  0  0  0  0  0  0  0
    0.6790   -0.3136   -0.0408 C   0  0  0  0  0  0  0  0  0  0  0  0
    1.9886    1.0599    0.4033 Br  0  0  0  0  0  0  0  0  0  0  0  0
   -1.9237   -0.9701   -0.3755 Cl  0  0  0  0  0  0  0  0  0  0  0  0
   -0.8388    1.0976   -0.6802 H   0  0  0  0  0  0  0  0  0  0  0  0
   -0.9448    0.6456    1.0304 H   0  0  0  0  0  0  0  0  0  0  0  0
    0.8237   -1.1235    0.6797 H   0  0  0  0  0  0  0  0  0  0  0  0
    0.9305   -0.6679   -1.0445 H   0  0  0  0  0  0  0  0  0  0  0  0
  1  2  1  0
  2  3  1  0
  1  4  1  0
  1  5  1  0
  1  6  1  0
  2  7  1  0
  2  8  1  0
M  END
$$$$
