
     RDKit          3D

 19 19  0  0  0  0  0  0  0  0999 V2000
   -2.5705    0.3462    0.5533 C   0  0  0  0  0  0  0  0  0  0  0  0
   -1.6612    0.5893   -0.6414 C   0  0  0  0  0  0  0  0  0  0  0  0
   -0.2687    0.0637   -0.4021 C   0  0  0  0  0  0  0  0  0  0  0  0
    0.0604   -1.2552   -0.7472 C   0  0  0  0  0  0  0  0  0  0  0  0
    1.3448   -1.7498   -0.5118 C   0  0  0  0  0  0  0  0  0  0  0  0
    2.3096   -0.9330    0.0744 C   0  0  0  0  0  0  0  0  0  0  0  0
    1.9841    0.3718    0.4234 C   0  0  0  0  0  0  0  0  0  0  0  0
    0.7063    0.8769    0.1937 C   0  0  0  0  0  0  0  0  0  0  0  0
    2.9567    1.1362    0.9982 O   0  0  0  0  0  0  0  0  0  0  0  0
   -2.6610   -0.7231    0.7727 H   0  0  0  0  0  0  0  0  0  0  0  0
   -3.5728    0.7371    0.3517 H   0  0  0  0  0  0  0  0  0  0  0  0
   -2.1874    0.8419    1.4518 H   0  0  0  0  0  0  0  0  0  0  0  0
   -1.6172    1.6629   -0.8616 H   0  0  0  0  0  0  0  0  0  0  0  0
   -2.0867    0.1144   -1.5338 H   0  0  0  0  0  0  0  0  0  0  0  0
   -0.6837   -1.9059   -1.2014 H   0  0  0  0  0  0  0  0  0  0  0  0
    1.5929   -2.7722   -0.7838 H   0  0  0  0  0  0  0  0  0  0  0  0
    3.3100   -1.3123    0.2604 H   0  0  0  0  0  0  0  0  0  0  0  0
    0.4571    1.8962    0.4730 H   0  0  0  0  0  0  0  0  0  0  0  0
    2.5874    2.0147    1.1840 H   0  0  0  0  0  0  0  0  0  0  0  0
  1  2  1  0
  2  3  1  0
  3  4  2  0
  4  5  1  0
  5  6  2  0
  6  7  1  0
  7  8  2  0
  7  9  1  0
  8  3  1  0
  1 10  1  0
  1 11  1  0
  1 12  1  0
  2 13  1  0
  2 14  1  0
  4 15  1  0
  5 16  1  0
  6 17  1  0
  8 18  1  0
  9 19  1  0
M  END
$$$$
