
     RDKit          3D

 12 12  0  0  0  0  0  0  0  0999 V2000
    0.7298   -1.1928   -0.0083 C   0  0  0  0  0  0  0  0  0  0  0  0
   -0.6665   -1.2293   -0.0118 C   0  0  0  0  0  0  0  0  0  0  0  0
   -1.3894   -0.0363   -0.0035 C   0  0  0  0  0  0  0  0  0  0  0  0
   -0.7298    1.1928    0.0083 C   0  0  0  0  0  0  0  0  0  0  0  0
    0.6665    1.2293    0.0118 C   0  0  0  0  0  0  0  0  0  0  0  0
    1.3894    0.0363    0.0035 C   0  0  0  0  0  0  0  0  0  0  0  0
    3.2791    0.0856    0.0083 Br  0  0  0  0  0  0  0  0  0  0  0  0
   -3.2791   -0.0856   -0.0083 Br  0  0  0  0  0  0  0  0  0  0  0  0
    1.2908   -2.1238   -0.0147 H   0  0  0  0  0  0  0  0  0  0  0  0
   -1.1781   -2.1882   -0.0210 H   0  0  0  0  0  0  0  0  0  0  0  0
   -1.2908    2.1238    0.0147 H   0  0  0  0  0  0  0  0  0  0  0  0
    1.1781    2.1882    0.0210 H   0  0  0  0  0  0  0  0  0  0  0  0
  1  2  2  0
  2  3  1  0
  3  4  2  0
  4  5  1  0
  5  6  2  0
  6  7  1  0
  3  8  1  0
  6  1  1  0
  1  9  1  0
  2 10  1  0
  4 11  1  0
  5 12  1  0
M  END
$$$$
