
     RDKit          3D

 13 13  0  0  0  0  0  0  0  0999 V2000
   -0.9898    0.6776    0.4835 C   0  0  0  0  0  0  0  0  0  0  0  0
    0.2479    1.3003    0.6600 C   0  0  0  0  0  0  0  0  0  0  0  0
    1.4174    0.6912    0.1904 C   0  0  0  0  0  0  0  0  0  0  0  0
    1.3461   -0.5475   -0.4588 C   0  0  0  0  0  0  0  0  0  0  0  0
    0.1074   -1.1690   -0.6346 C   0  0  0  0  0  0  0  0  0  0  0  0
   -1.0472   -0.5526   -0.1630 C   0  0  0  0  0  0  0  0  0  0  0  0
   -2.2323   -1.1967   -0.3574 O   0  0  0  0  0  0  0  0  0  0  0  0
    2.7475   -1.3574   -1.0640 Cl  0  0  0  0  0  0  0  0  0  0  0  0
    2.9115    1.5208    0.4449 Cl  0  0  0  0  0  0  0  0  0  0  0  0
   -1.8877    1.1635    0.8537 H   0  0  0  0  0  0  0  0  0  0  0  0
    0.2962    2.2623    1.1652 H   0  0  0  0  0  0  0  0  0  0  0  0
    0.0357   -2.1303   -1.1364 H   0  0  0  0  0  0  0  0  0  0  0  0
   -2.9527   -0.6621    0.0165 H   0  0  0  0  0  0  0  0  0  0  0  0
  1  2  2  0
  2  3  1  0
  3  4  2  0
  4  5  1  0
  5  6  2  0
  6  7  1  0
  4  8  1  0
  3  9  1  0
  6  1  1  0
  1 10  1  0
  2 11  1  0
  5 12  1  0
  7 13  1  0
M  END
$$$$
