
     RDKit          3D

 19 18  0  0  0  0  0  0  0  0999 V2000
   -3.1108    0.0940    0.0449 C   0  0  0  0  0  0  0  0  0  0  0  0
   -1.7153    0.4969    0.4943 C   0  0  0  0  0  0  0  0  0  0  0  0
   -0.6368   -0.2432   -0.2964 C   0  0  0  0  0  0  0  0  0  0  0  0
    0.7656    0.1647    0.1586 C   0  0  0  0  0  0  0  0  0  0  0  0
    1.8446   -0.5751   -0.6319 C   0  0  0  0  0  0  0  0  0  0  0  0
    3.1902   -0.1792   -0.1905 C   0  0  0  0  0  0  0  0  0  0  0  0
    4.2905    0.1419    0.1677 C   0  0  0  0  0  0  0  0  0  0  0  0
   -3.2754   -0.9784    0.1901 H   0  0  0  0  0  0  0  0  0  0  0  0
   -3.2638    0.3251   -1.0142 H   0  0  0  0  0  0  0  0  0  0  0  0
   -3.8662    0.6350    0.6232 H   0  0  0  0  0  0  0  0  0  0  0  0
   -1.5948    1.5789    0.3662 H   0  0  0  0  0  0  0  0  0  0  0  0
   -1.6062    0.2825    1.5638 H   0  0  0  0  0  0  0  0  0  0  0  0
   -0.7645   -1.3250   -0.1681 H   0  0  0  0  0  0  0  0  0  0  0  0
   -0.7530   -0.0286   -1.3658 H   0  0  0  0  0  0  0  0  0  0  0  0
    0.8806   -0.0455    1.2297 H   0  0  0  0  0  0  0  0  0  0  0  0
    0.8921    1.2480    0.0347 H   0  0  0  0  0  0  0  0  0  0  0  0
    1.7339   -0.3620   -1.7016 H   0  0  0  0  0  0  0  0  0  0  0  0
    1.7224   -1.6571   -0.5051 H   0  0  0  0  0  0  0  0  0  0  0  0
    5.2668    0.4271    0.4857 H   0  0  0  0  0  0  0  0  0  0  0  0
  1  2  1  0
  2  3  1  0
  3  4  1  0
  4  5  1  0
  5  6  1  0
  6  7  3  0
  1  8  1  0
  1  9  1  0
  1 10  1  0
  2 11  1  0
  2 12  1  0
  3 13  1  0
  3 14  1  0
  4 15  1  0
  4 16  1  0
  5 17  1  0
  5 18  1  0
  7 19  1  0
M  END
$$$$
