
     RDKit          3D

 10  9  0  0  0  0  0  0  0  0999 V2000
   -1.1236   -0.0466   -0.0858 C   0  0  0  0  0  0  0  0  0  0  0  0
    0.2449   -0.5159    0.3612 C   0  0  0  0  0  0  0  0  0  0  0  0
    1.2433    0.5513    0.0359 N   0  0  0  0  0  4  0  0  0  0  0  0
    1.7826    0.4976   -1.0764 O   0  0  0  0  0  0  0  0  0  0  0  0
    1.4501    1.4114    0.9009 O   0  0  0  0  0  1  0  0  0  0  0  0
   -1.8766   -0.8083    0.1396 H   0  0  0  0  0  0  0  0  0  0  0  0
   -1.1473    0.1449   -1.1641 H   0  0  0  0  0  0  0  0  0  0  0  0
   -1.4142    0.8786    0.4235 H   0  0  0  0  0  0  0  0  0  0  0  0
    0.2858   -0.6866    1.4411 H   0  0  0  0  0  0  0  0  0  0  0  0
    0.5550   -1.4265   -0.1600 H   0  0  0  0  0  0  0  0  0  0  0  0
  1  2  1  0
  2  3  1  0
  3  4  2  0
  3  5  1  0
  1  6  1  0
  1  7  1  0
  1  8  1  0
  2  9  1  0
  2 10  1  0
M  CHG  2   3   1   5  -1
M  END
$$$$
