
     RDKit          3D

 22 21  0  0  0  0  0  0  0  0999 V2000
   -3.5899    0.5262   -0.2097 C   0  0  0  0  0  0  0  0  0  0  0  0
   -2.3779   -0.3567    0.0413 C   0  0  0  0  0  0  0  0  0  0  0  0
   -1.0730    0.4008   -0.2030 C   0  0  0  0  0  0  0  0  0  0  0  0
    0.1437   -0.4907    0.0506 C   0  0  0  0  0  0  0  0  0  0  0  0
    1.4492    0.2668   -0.1938 C   0  0  0  0  0  0  0  0  0  0  0  0
    2.6625   -0.6222    0.0591 C   0  0  0  0  0  0  0  0  0  0  0  0
    3.9687    0.0981   -0.1741 C   0  0  0  0  0  0  0  0  0  0  0  0
    4.0688    1.2680   -0.5278 O   0  0  0  0  0  0  0  0  0  0  0  0
   -3.5862    1.3959    0.4550 H   0  0  0  0  0  0  0  0  0  0  0  0
   -4.5118   -0.0354   -0.0291 H   0  0  0  0  0  0  0  0  0  0  0  0
   -3.6072    0.8840   -1.2441 H   0  0  0  0  0  0  0  0  0  0  0  0
   -2.4080   -0.7235    1.0739 H   0  0  0  0  0  0  0  0  0  0  0  0
   -2.4288   -1.2326   -0.6158 H   0  0  0  0  0  0  0  0  0  0  0  0
   -1.0290    1.2782    0.4538 H   0  0  0  0  0  0  0  0  0  0  0  0
   -1.0499    0.7691   -1.2359 H   0  0  0  0  0  0  0  0  0  0  0  0
    0.1205   -0.8587    1.0836 H   0  0  0  0  0  0  0  0  0  0  0  0
    0.0996   -1.3679   -0.6064 H   0  0  0  0  0  0  0  0  0  0  0  0
    1.4940    1.1471    0.4597 H   0  0  0  0  0  0  0  0  0  0  0  0
    1.4732    0.6393   -1.2255 H   0  0  0  0  0  0  0  0  0  0  0  0
    2.6440   -1.4931   -0.6049 H   0  0  0  0  0  0  0  0  0  0  0  0
    2.6650   -0.9812    1.0939 H   0  0  0  0  0  0  0  0  0  0  0  0
    4.8724   -0.5117   -0.0015 H   0  0  0  0  0  0  0  0  0  0  0  0
  1  2  1  0
  2  3  1  0
  3  4  1  0
  4  5  1  0
  5  6  1  0
  6  7  1  0
  7  8  2  0
  1  9  1  0
  1 10  1  0
  1 11  1  0
  2 12  1  0
  2 13  1  0
  3 14  1  0
  3 15  1  0
  4 16  1  0
  4 17  1  0
  5 18  1  0
  5 19  1  0
  6 20  1  0
  6 21  1  0
  7 22  1  0
M  END
$$$$
