
     RDKit          3D

 25 24  0  0  0  0  0  0  0  0999 V2000
   -4.2026    0.1560   -0.5607 C   0  0  0  0  0  0  0  0  0  0  0  0
   -3.0055   -0.0579    0.3519 C   0  0  0  0  0  0  0  0  0  0  0  0
   -1.6878    0.1200   -0.4018 C   0  0  0  0  0  0  0  0  0  0  0  0
   -0.4863   -0.0960    0.5197 C   0  0  0  0  0  0  0  0  0  0  0  0
    0.8326    0.0819   -0.2344 C   0  0  0  0  0  0  0  0  0  0  0  0
    2.0337   -0.1340    0.6867 C   0  0  0  0  0  0  0  0  0  0  0  0
    3.3488    0.0434   -0.0652 C   0  0  0  0  0  0  0  0  0  0  0  0
    4.5553   -0.1637    0.8184 C   0  0  0  0  0  0  0  0  0  0  0  0
    4.5086   -0.4441    2.0113 O   0  0  0  0  0  0  0  0  0  0  0  0
   -5.1340    0.0241   -0.0013 H   0  0  0  0  0  0  0  0  0  0  0  0
   -4.1993    1.1665   -0.9817 H   0  0  0  0  0  0  0  0  0  0  0  0
   -4.1985   -0.5611   -1.3878 H   0  0  0  0  0  0  0  0  0  0  0  0
   -3.0562   -1.0653    0.7811 H   0  0  0  0  0  0  0  0  0  0  0  0
   -3.0571    0.6528    1.1850 H   0  0  0  0  0  0  0  0  0  0  0  0
   -1.6441    1.1277   -0.8326 H   0  0  0  0  0  0  0  0  0  0  0  0
   -1.6432   -0.5903   -1.2364 H   0  0  0  0  0  0  0  0  0  0  0  0
   -0.5301   -1.1038    0.9503 H   0  0  0  0  0  0  0  0  0  0  0  0
   -0.5310    0.6144    1.3542 H   0  0  0  0  0  0  0  0  0  0  0  0
    0.8764    1.0897   -0.6650 H   0  0  0  0  0  0  0  0  0  0  0  0
    0.8773   -0.6286   -1.0688 H   0  0  0  0  0  0  0  0  0  0  0  0
    1.9892    0.5731    1.5245 H   0  0  0  0  0  0  0  0  0  0  0  0
    1.9901   -1.1403    1.1217 H   0  0  0  0  0  0  0  0  0  0  0  0
    3.4171    1.0532   -0.4839 H   0  0  0  0  0  0  0  0  0  0  0  0
    3.4180   -0.6741   -0.8900 H   0  0  0  0  0  0  0  0  0  0  0  0
    5.5283   -0.0439    0.3112 H   0  0  0  0  0  0  0  0  0  0  0  0
  1  2  1  0
  2  3  1  0
  3  4  1  0
  4  5  1  0
  5  6  1  0
  6  7  1  0
  7  8  1  0
  8  9  2  0
  1 10  1  0
  1 11  1  0
  1 12  1  0
  2 13  1  0
  2 14  1  0
  3 15  1  0
  3 16  1  0
  4 17  1  0
  4 18  1  0
  5 19  1  0
  5 20  1  0
  6 21  1  0
  6 22  1  0
  7 23  1  0
  7 24  1  0
  8 25  1  0
M  END
$$$$
