
     RDKit          3D

 14 13  0  0  0  0  0  0  0  0999 V2000
   -1.9717   -0.1349   -0.0483 C   0  0  0  0  0  0  0  0  0  0  0  0
   -0.5858    0.2928   -0.5042 C   0  0  0  0  0  0  0  0  0  0  0  0
    0.5014   -0.2489    0.4232 C   0  0  0  0  0  0  0  0  0  0  0  0
    1.8810    0.1847   -0.0422 C   0  0  0  0  0  0  0  0  0  0  0  0
    3.2361   -0.5239    1.1627 Br  0  0  0  0  0  0  0  0  0  0  0  0
   -2.0625   -1.2258   -0.0391 H   0  0  0  0  0  0  0  0  0  0  0  0
   -2.1853    0.2365    0.9590 H   0  0  0  0  0  0  0  0  0  0  0  0
   -2.7333    0.2636   -0.7259 H   0  0  0  0  0  0  0  0  0  0  0  0
   -0.4166   -0.0666   -1.5260 H   0  0  0  0  0  0  0  0  0  0  0  0
   -0.5388    1.3877   -0.5333 H   0  0  0  0  0  0  0  0  0  0  0  0
    0.4435   -1.3443    0.4555 H   0  0  0  0  0  0  0  0  0  0  0  0
    0.3216    0.1064    1.4457 H   0  0  0  0  0  0  0  0  0  0  0  0
    2.1170   -0.1996   -1.0383 H   0  0  0  0  0  0  0  0  0  0  0  0
    1.9934    1.2723   -0.0336 H   0  0  0  0  0  0  0  0  0  0  0  0
  1  2  1  0
  2  3  1  0
  3  4  1  0
  4  5  1  0
  1  6  1  0
  1  7  1  0
  1  8  1  0
  2  9  1  0
  2 10  1  0
  3 11  1  0
  3 12  1  0
  4 13  1  0
  4 14  1  0
M  END
$$$$
