
     RDKit          3D

  6  5  0  0  0  0  0  0  0  0999 V2000
   -0.6246   -0.0602   -0.2409 C   0  0  0  0  0  0  0  0  0  0  0  0
    0.6246    0.0602    0.2409 C   0  0  0  0  0  0  0  0  0  0  0  0
    1.3102    1.5917    0.6937 Cl  0  0  0  0  0  0  0  0  0  0  0  0
    1.6795   -1.3038    0.4593 Cl  0  0  0  0  0  0  0  0  0  0  0  0
   -1.6795    1.3038   -0.4592 Cl  0  0  0  0  0  0  0  0  0  0  0  0
   -1.3102   -1.5917   -0.6937 Cl  0  0  0  0  0  0  0  0  0  0  0  0
  1  2  2  3
  2  3  1  0
  2  4  1  0
  1  5  1  0
  1  6  1  0
M  END
$$$$
