
     RDKit          3D

 24 24  0  0  0  0  0  0  0  0999 V2000
    3.5877    0.2305   -0.0362 C   0  0  0  0  0  0  0  0  0  0  0  0
    2.3827   -0.0201    0.6879 O   0  0  0  0  0  0  0  0  0  0  0  0
    1.3532   -0.4721   -0.0857 C   0  0  0  0  0  0  0  0  0  0  0  0
    1.4252   -0.6700   -1.2904 O   0  0  0  0  0  0  0  0  0  0  0  0
    0.1220   -0.7148    0.7788 C   0  0  0  0  0  0  0  0  0  0  0  0
   -0.9713   -1.4872    0.0259 C   0  0  0  0  0  0  0  0  0  0  0  0
   -1.7517   -0.6275   -0.9691 C   0  0  0  0  0  0  0  0  0  0  0  0
   -2.2787    0.6511   -0.3289 C   0  0  0  0  0  0  0  0  0  0  0  0
   -1.1607    1.4421    0.3400 C   0  0  0  0  0  0  0  0  0  0  0  0
   -0.4149    0.5948    1.3685 C   0  0  0  0  0  0  0  0  0  0  0  0
    3.9593   -0.6922   -0.4929 H   0  0  0  0  0  0  0  0  0  0  0  0
    3.4257    1.0023   -0.7951 H   0  0  0  0  0  0  0  0  0  0  0  0
    4.3386    0.5932    0.6711 H   0  0  0  0  0  0  0  0  0  0  0  0
    0.4627   -1.3607    1.5998 H   0  0  0  0  0  0  0  0  0  0  0  0
   -0.5410   -2.3482   -0.4995 H   0  0  0  0  0  0  0  0  0  0  0  0
   -1.6789   -1.8924    0.7610 H   0  0  0  0  0  0  0  0  0  0  0  0
   -2.5899   -1.2075   -1.3722 H   0  0  0  0  0  0  0  0  0  0  0  0
   -1.1132   -0.3692   -1.8217 H   0  0  0  0  0  0  0  0  0  0  0  0
   -3.0446    0.3990    0.4148 H   0  0  0  0  0  0  0  0  0  0  0  0
   -2.7653    1.2711   -1.0903 H   0  0  0  0  0  0  0  0  0  0  0  0
   -0.4593    1.8050   -0.4209 H   0  0  0  0  0  0  0  0  0  0  0  0
   -1.5818    2.3267    0.8314 H   0  0  0  0  0  0  0  0  0  0  0  0
   -1.1013    0.3550    2.1909 H   0  0  0  0  0  0  0  0  0  0  0  0
    0.3952    1.1910    1.8041 H   0  0  0  0  0  0  0  0  0  0  0  0
  1  2  1  0
  2  3  1  0
  3  4  2  0
  3  5  1  0
  5  6  1  0
  6  7  1  0
  7  8  1  0
  8  9  1  0
  9 10  1  0
 10  5  1  0
  1 11  1  0
  1 12  1  0
  1 13  1  0
  5 14  1  0
  6 15  1  0
  6 16  1  0
  7 17  1  0
  7 18  1  0
  8 19  1  0
  8 20  1  0
  9 21  1  0
  9 22  1  0
 10 23  1  0
 10 24  1  0
M  END
$$$$
