
     RDKit          3D

 22 24  0  0  0  0  0  0  0  0999 V2000
    3.6388   -0.2413    0.2620 C   0  0  0  0  0  0  0  0  0  0  0  0
    3.4781    0.8138   -0.6388 C   0  0  0  0  0  0  0  0  0  0  0  0
    2.1975    1.2400   -0.9955 C   0  0  0  0  0  0  0  0  0  0  0  0
    1.0815    0.6083   -0.4490 C   0  0  0  0  0  0  0  0  0  0  0  0
    1.2417   -0.4439    0.4493 C   0  0  0  0  0  0  0  0  0  0  0  0
    2.5191   -0.8719    0.8076 C   0  0  0  0  0  0  0  0  0  0  0  0
    0.1723   -1.0931    1.0105 O   0  0  0  0  0  0  0  0  0  0  0  0
   -1.0655   -0.6375    0.6284 C   0  0  0  0  0  0  0  0  0  0  0  0
   -2.1746   -1.2786    1.1828 C   0  0  0  0  0  0  0  0  0  0  0  0
   -3.4609   -0.8651    0.8371 C   0  0  0  0  0  0  0  0  0  0  0  0
   -3.6345    0.1885   -0.0624 C   0  0  0  0  0  0  0  0  0  0  0  0
   -2.5213    0.8285   -0.6160 C   0  0  0  0  0  0  0  0  0  0  0  0
   -1.2309    0.4169   -0.2718 C   0  0  0  0  0  0  0  0  0  0  0  0
   -0.1544    1.0626   -0.8299 O   0  0  0  0  0  0  0  0  0  0  0  0
   -2.7862    2.1264   -1.7236 Cl  0  0  0  0  0  0  0  0  0  0  0  0
    4.6369   -0.5720    0.5388 H   0  0  0  0  0  0  0  0  0  0  0  0
    4.3507    1.3043   -1.0631 H   0  0  0  0  0  0  0  0  0  0  0  0
    2.0701    2.0606   -1.6961 H   0  0  0  0  0  0  0  0  0  0  0  0
    2.6428   -1.6927    1.5083 H   0  0  0  0  0  0  0  0  0  0  0  0
   -2.0350   -2.0985    1.8828 H   0  0  0  0  0  0  0  0  0  0  0  0
   -4.3269   -1.3625    1.2673 H   0  0  0  0  0  0  0  0  0  0  0  0
   -4.6394    0.5071   -0.3288 H   0  0  0  0  0  0  0  0  0  0  0  0
  1  2  2  0
  2  3  1  0
  3  4  2  0
  4  5  1  0
  5  6  2  0
  5  7  1  0
  7  8  1  0
  8  9  2  0
  9 10  1  0
 10 11  2  0
 11 12  1  0
 12 13  2  0
 13 14  1  0
 12 15  1  0
  6  1  1  0
 14  4  1  0
 13  8  1  0
  1 16  1  0
  2 17  1  0
  3 18  1  0
  6 19  1  0
  9 20  1  0
 10 21  1  0
 11 22  1  0
M  END
$$$$
