
     RDKit          3D

 22 23  0  0  0  0  0  0  0  0999 V2000
   -3.1858    0.4438    0.5643 C   0  0  0  0  0  0  0  0  0  0  0  0
   -2.2721    1.4735    0.3504 C   0  0  0  0  0  0  0  0  0  0  0  0
   -1.0379    1.2016   -0.2418 C   0  0  0  0  0  0  0  0  0  0  0  0
   -0.7043   -0.1063   -0.6258 C   0  0  0  0  0  0  0  0  0  0  0  0
   -1.6329   -1.1343   -0.4046 C   0  0  0  0  0  0  0  0  0  0  0  0
   -2.8668   -0.8590    0.1874 C   0  0  0  0  0  0  0  0  0  0  0  0
    0.6283   -0.4035   -1.2648 C   0  0  0  0  0  0  0  0  0  0  0  0
    1.7238   -0.2786   -0.3195 N   0  0  0  0  0  0  0  0  0  0  0  0
    2.6887    0.6912   -0.3172 C   0  0  0  0  0  0  0  0  0  0  0  0
    3.5269    0.3534    0.7199 C   0  0  0  0  0  0  0  0  0  0  0  0
    3.1025   -0.7959    1.3348 N   0  0  0  0  0  0  0  0  0  0  0  0
    2.0142   -1.1524    0.6899 C   0  0  0  0  0  0  0  0  0  0  0  0
   -4.1455    0.6565    1.0282 H   0  0  0  0  0  0  0  0  0  0  0  0
   -2.5190    2.4892    0.6494 H   0  0  0  0  0  0  0  0  0  0  0  0
   -0.3349    2.0182   -0.3943 H   0  0  0  0  0  0  0  0  0  0  0  0
   -1.4042   -2.1594   -0.6886 H   0  0  0  0  0  0  0  0  0  0  0  0
   -3.5796   -1.6620    0.3576 H   0  0  0  0  0  0  0  0  0  0  0  0
    0.6649   -1.4223   -1.6683 H   0  0  0  0  0  0  0  0  0  0  0  0
    0.8084    0.2840   -2.0995 H   0  0  0  0  0  0  0  0  0  0  0  0
    2.7025    1.5098   -1.0225 H   0  0  0  0  0  0  0  0  0  0  0  0
    4.4153    0.8735    1.0537 H   0  0  0  0  0  0  0  0  0  0  0  0
    1.4073   -2.0210    0.9108 H   0  0  0  0  0  0  0  0  0  0  0  0
  1  2  2  0
  2  3  1  0
  3  4  2  0
  4  5  1  0
  5  6  2  0
  4  7  1  0
  7  8  1  0
  8  9  1  0
  9 10  2  0
 10 11  1  0
 11 12  2  0
  6  1  1  0
 12  8  1  0
  1 13  1  0
  2 14  1  0
  3 15  1  0
  5 16  1  0
  6 17  1  0
  7 18  1  0
  7 19  1  0
  9 20  1  0
 10 21  1  0
 12 22  1  0
M  END
$$$$
