
     RDKit          3D

 20 21  0  0  0  0  0  0  0  0999 V2000
    2.7151    0.2428   -0.5518 C   0  0  0  0  0  0  0  0  0  0  0  0
    2.0888    1.4815   -0.5326 C   0  0  0  0  0  0  0  0  0  0  0  0
    0.7187    1.5660   -0.2712 C   0  0  0  0  0  0  0  0  0  0  0  0
   -0.0641    0.4148   -0.0176 C   0  0  0  0  0  0  0  0  0  0  0  0
    0.5900   -0.8439   -0.0630 C   0  0  0  0  0  0  0  0  0  0  0  0
    1.9696   -0.9119   -0.3214 C   0  0  0  0  0  0  0  0  0  0  0  0
   -0.1455   -2.0210    0.1352 C   0  0  0  0  0  0  0  0  0  0  0  0
   -1.5192   -1.9742    0.3517 C   0  0  0  0  0  0  0  0  0  0  0  0
   -2.1701   -0.7454    0.4019 C   0  0  0  0  0  0  0  0  0  0  0  0
   -1.4558    0.4551    0.2800 C   0  0  0  0  0  0  0  0  0  0  0  0
   -2.1928    1.6600    0.2602 N   0  0  0  0  0  0  0  0  0  0  0  0
    3.7800    0.1719   -0.7553 H   0  0  0  0  0  0  0  0  0  0  0  0
    2.6611    2.3853   -0.7245 H   0  0  0  0  0  0  0  0  0  0  0  0
    0.2629    2.5518   -0.2808 H   0  0  0  0  0  0  0  0  0  0  0  0
    2.4757   -1.8745   -0.3535 H   0  0  0  0  0  0  0  0  0  0  0  0
    0.3458   -2.9909    0.0975 H   0  0  0  0  0  0  0  0  0  0  0  0
   -2.0838   -2.8947    0.4713 H   0  0  0  0  0  0  0  0  0  0  0  0
   -3.2470   -0.7284    0.5479 H   0  0  0  0  0  0  0  0  0  0  0  0
   -1.6532    2.4606    0.5699 H   0  0  0  0  0  0  0  0  0  0  0  0
   -3.0761    1.5951    0.7561 H   0  0  0  0  0  0  0  0  0  0  0  0
  1  2  2  0
  2  3  1  0
  3  4  2  0
  4  5  1  0
  5  6  2  0
  5  7  1  0
  7  8  2  0
  8  9  1  0
  9 10  2  0
 10 11  1  0
  6  1  1  0
 10  4  1  0
  1 12  1  0
  2 13  1  0
  3 14  1  0
  6 15  1  0
  7 16  1  0
  8 17  1  0
  9 18  1  0
 11 19  1  0
 11 20  1  0
M  END
$$$$
