
     RDKit          3D

 18 18  0  0  0  0  0  0  0  0999 V2000
    3.4169   -0.0650    0.3433 C   0  0  0  0  0  0  0  0  0  0  0  0
    2.0285   -0.3956    0.2930 O   0  0  0  0  0  0  0  0  0  0  0  0
    1.2263    0.6471   -0.0394 C   0  0  0  0  0  0  0  0  0  0  0  0
    1.5994    1.7840   -0.2834 O   0  0  0  0  0  0  0  0  0  0  0  0
   -0.2008    0.2250   -0.0709 C   0  0  0  0  0  0  0  0  0  0  0  0
   -1.1676    1.1858   -0.3987 C   0  0  0  0  0  0  0  0  0  0  0  0
   -2.5196    0.8394   -0.4417 C   0  0  0  0  0  0  0  0  0  0  0  0
   -2.9134   -0.4675   -0.1578 C   0  0  0  0  0  0  0  0  0  0  0  0
   -1.9584   -1.4297    0.1692 C   0  0  0  0  0  0  0  0  0  0  0  0
   -0.6046   -1.0870    0.2133 C   0  0  0  0  0  0  0  0  0  0  0  0
    3.9701   -0.9675    0.6176 H   0  0  0  0  0  0  0  0  0  0  0  0
    3.6019    0.6993    1.1047 H   0  0  0  0  0  0  0  0  0  0  0  0
    3.7671    0.2710   -0.6377 H   0  0  0  0  0  0  0  0  0  0  0  0
   -0.8704    2.2089   -0.6220 H   0  0  0  0  0  0  0  0  0  0  0  0
   -3.2641    1.5896   -0.6967 H   0  0  0  0  0  0  0  0  0  0  0  0
   -3.9664   -0.7366   -0.1915 H   0  0  0  0  0  0  0  0  0  0  0  0
   -2.2678   -2.4484    0.3902 H   0  0  0  0  0  0  0  0  0  0  0  0
    0.1228   -1.8529    0.4705 H   0  0  0  0  0  0  0  0  0  0  0  0
  1  2  1  0
  2  3  1  0
  3  4  2  0
  3  5  1  0
  5  6  2  0
  6  7  1  0
  7  8  2  0
  8  9  1  0
  9 10  2  0
 10  5  1  0
  1 11  1  0
  1 12  1  0
  1 13  1  0
  6 14  1  0
  7 15  1  0
  8 16  1  0
  9 17  1  0
 10 18  1  0
M  END
$$$$
