
     RDKit          3D

 27 26  0  0  0  0  0  0  0  0999 V2000
    4.6523    0.2037   -0.3082 C   0  0  0  0  0  0  0  0  0  0  0  0
    3.3796    0.4647    0.4814 C   0  0  0  0  0  0  0  0  0  0  0  0
    2.1412   -0.0065   -0.2806 C   0  0  0  0  0  0  0  0  0  0  0  0
    0.8631    0.2578    0.5171 C   0  0  0  0  0  0  0  0  0  0  0  0
   -0.3762   -0.2137   -0.2454 C   0  0  0  0  0  0  0  0  0  0  0  0
   -1.6542    0.0506    0.5523 C   0  0  0  0  0  0  0  0  0  0  0  0
   -2.8916   -0.4201   -0.2088 C   0  0  0  0  0  0  0  0  0  0  0  0
   -4.1682   -0.1606    0.5785 C   0  0  0  0  0  0  0  0  0  0  0  0
   -5.2778   -0.6193   -0.1812 O   0  0  0  0  0  0  0  0  0  0  0  0
    4.7775   -0.8652   -0.5086 H   0  0  0  0  0  0  0  0  0  0  0  0
    4.6353    0.7335   -1.2661 H   0  0  0  0  0  0  0  0  0  0  0  0
    5.5252    0.5483    0.2550 H   0  0  0  0  0  0  0  0  0  0  0  0
    3.3012    1.5375    0.6927 H   0  0  0  0  0  0  0  0  0  0  0  0
    3.4426   -0.0523    1.4460 H   0  0  0  0  0  0  0  0  0  0  0  0
    2.2266   -1.0792   -0.4930 H   0  0  0  0  0  0  0  0  0  0  0  0
    2.0852    0.5105   -1.2463 H   0  0  0  0  0  0  0  0  0  0  0  0
    0.7778    1.3305    0.7293 H   0  0  0  0  0  0  0  0  0  0  0  0
    0.9192   -0.2594    1.4827 H   0  0  0  0  0  0  0  0  0  0  0  0
   -0.4323    0.3035   -1.2110 H   0  0  0  0  0  0  0  0  0  0  0  0
   -0.2909   -1.2864   -0.4576 H   0  0  0  0  0  0  0  0  0  0  0  0
   -1.5982   -0.4666    1.5179 H   0  0  0  0  0  0  0  0  0  0  0  0
   -1.7396    1.1233    0.7645 H   0  0  0  0  0  0  0  0  0  0  0  0
   -2.8150   -1.4914   -0.4332 H   0  0  0  0  0  0  0  0  0  0  0  0
   -2.9552    0.0856   -1.1805 H   0  0  0  0  0  0  0  0  0  0  0  0
   -4.1543   -0.6965    1.5329 H   0  0  0  0  0  0  0  0  0  0  0  0
   -4.2971    0.9091    0.7721 H   0  0  0  0  0  0  0  0  0  0  0  0
   -6.0763   -0.4413    0.3443 H   0  0  0  0  0  0  0  0  0  0  0  0
  1  2  1  0
  2  3  1  0
  3  4  1  0
  4  5  1  0
  5  6  1  0
  6  7  1  0
  7  8  1  0
  8  9  1  0
  1 10  1  0
  1 11  1  0
  1 12  1  0
  2 13  1  0
  2 14  1  0
  3 15  1  0
  3 16  1  0
  4 17  1  0
  4 18  1  0
  5 19  1  0
  5 20  1  0
  6 21  1  0
  6 22  1  0
  7 23  1  0
  7 24  1  0
  8 25  1  0
  8 26  1  0
  9 27  1  0
M  END
$$$$
