
     RDKit          3D

  8  7  0  0  0  0  0  0  0  0999 V2000
   -0.6761    0.3341    0.0298 C   0  0  0  0  0  0  0  0  0  0  0  0
    0.6761   -0.3341   -0.0298 C   0  0  0  0  0  0  0  0  0  0  0  0
    2.0630    0.9620    0.4045 Br  0  0  0  0  0  0  0  0  0  0  0  0
   -2.0630   -0.9620   -0.4045 Br  0  0  0  0  0  0  0  0  0  0  0  0
   -0.7709    1.1475   -0.6954 H   0  0  0  0  0  0  0  0  0  0  0  0
   -0.9078    0.7166    1.0281 H   0  0  0  0  0  0  0  0  0  0  0  0
    0.7709   -1.1475    0.6954 H   0  0  0  0  0  0  0  0  0  0  0  0
    0.9078   -0.7166   -1.0281 H   0  0  0  0  0  0  0  0  0  0  0  0
  1  2  1  0
  2  3  1  0
  1  4  1  0
  1  5  1  0
  1  6  1  0
  2  7  1  0
  2  8  1  0
M  END
$$$$
