
     RDKit          3D

 19 20  0  0  0  0  0  0  0  0999 V2000
    2.6925    0.1080   -0.1113 C   0  0  0  0  0  0  0  0  0  0  0  0
    2.2208    1.3166    0.3889 C   0  0  0  0  0  0  0  0  0  0  0  0
    0.8482    1.5159    0.5453 C   0  0  0  0  0  0  0  0  0  0  0  0
   -0.0796    0.5104    0.2044 C   0  0  0  0  0  0  0  0  0  0  0  0
    0.4081   -0.7166   -0.3039 C   0  0  0  0  0  0  0  0  0  0  0  0
    1.7927   -0.9018   -0.4555 C   0  0  0  0  0  0  0  0  0  0  0  0
   -0.4997   -1.7315   -0.6496 C   0  0  0  0  0  0  0  0  0  0  0  0
   -1.8747   -1.5455   -0.4983 C   0  0  0  0  0  0  0  0  0  0  0  0
   -2.3645   -0.3419    0.0010 C   0  0  0  0  0  0  0  0  0  0  0  0
   -1.4729    0.6738    0.3479 C   0  0  0  0  0  0  0  0  0  0  0  0
   -1.9601    1.8582    0.8396 O   0  0  0  0  0  0  0  0  0  0  0  0
    3.7605   -0.0505   -0.2342 H   0  0  0  0  0  0  0  0  0  0  0  0
    2.9168    2.1062    0.6585 H   0  0  0  0  0  0  0  0  0  0  0  0
    0.4946    2.4673    0.9380 H   0  0  0  0  0  0  0  0  0  0  0  0
    2.1823   -1.8397   -0.8450 H   0  0  0  0  0  0  0  0  0  0  0  0
   -0.1383   -2.6799   -1.0416 H   0  0  0  0  0  0  0  0  0  0  0  0
   -2.5618   -2.3423   -0.7712 H   0  0  0  0  0  0  0  0  0  0  0  0
   -3.4364   -0.2131    0.1125 H   0  0  0  0  0  0  0  0  0  0  0  0
   -2.9285    1.8065    0.8745 H   0  0  0  0  0  0  0  0  0  0  0  0
  1  2  2  0
  2  3  1  0
  3  4  2  0
  4  5  1  0
  5  6  2  0
  5  7  1  0
  7  8  2  0
  8  9  1  0
  9 10  2  0
 10 11  1  0
  6  1  1  0
 10  4  1  0
  1 12  1  0
  2 13  1  0
  3 14  1  0
  6 15  1  0
  7 16  1  0
  8 17  1  0
  9 18  1  0
 11 19  1  0
M  END
$$$$
