
     RDKit          3D

 12 12  0  0  0  0  0  0  0  0999 V2000
    0.1397    1.2054   -0.0079 C   0  0  0  0  0  0  0  0  0  0  0  0
   -1.2421    1.1536   -0.0310 C   0  0  0  0  0  0  0  0  0  0  0  0
   -1.9462    0.0017   -0.0331 N   0  0  0  0  0  0  0  0  0  0  0  0
   -1.2445   -1.1514   -0.0113 C   0  0  0  0  0  0  0  0  0  0  0  0
    0.1373   -1.2056    0.0126 C   0  0  0  0  0  0  0  0  0  0  0  0
    0.8382   -0.0007    0.0142 C   0  0  0  0  0  0  0  0  0  0  0  0
    2.2701   -0.0020    0.0386 C   0  0  0  0  0  0  0  0  0  0  0  0
    3.4303   -0.0030    0.0583 N   0  0  0  0  0  0  0  0  0  0  0  0
    0.6520    2.1621   -0.0074 H   0  0  0  0  0  0  0  0  0  0  0  0
   -1.8391    2.0614   -0.0488 H   0  0  0  0  0  0  0  0  0  0  0  0
   -1.8433   -2.0582   -0.0138 H   0  0  0  0  0  0  0  0  0  0  0  0
    0.6476   -2.1632    0.0295 H   0  0  0  0  0  0  0  0  0  0  0  0
  1  2  2  0
  2  3  1  0
  3  4  2  0
  4  5  1  0
  5  6  2  0
  6  7  1  0
  7  8  3  0
  6  1  1  0
  1  9  1  0
  2 10  1  0
  4 11  1  0
  5 12  1  0
M  END
$$$$
