
     RDKit          3D

 20 19  0  0  0  0  0  0  0  0999 V2000
   -3.1971   -0.1425   -0.1136 C   0  0  0  0  0  0  0  0  0  0  0  0
   -1.8597    0.5556    0.0745 C   0  0  0  0  0  0  0  0  0  0  0  0
   -0.6968   -0.3348   -0.3629 C   0  0  0  0  0  0  0  0  0  0  0  0
    0.6467    0.3711   -0.1721 C   0  0  0  0  0  0  0  0  0  0  0  0
    1.8108   -0.5197   -0.6098 C   0  0  0  0  0  0  0  0  0  0  0  0
    3.1452    0.1888   -0.4173 C   0  0  0  0  0  0  0  0  0  0  0  0
    4.4853   -0.8617   -0.9312 Cl  0  0  0  0  0  0  0  0  0  0  0  0
   -3.3600   -0.4018   -1.1646 H   0  0  0  0  0  0  0  0  0  0  0  0
   -3.2468   -1.0615    0.4791 H   0  0  0  0  0  0  0  0  0  0  0  0
   -4.0144    0.5119    0.2054 H   0  0  0  0  0  0  0  0  0  0  0  0
   -1.7425    0.8299    1.1294 H   0  0  0  0  0  0  0  0  0  0  0  0
   -1.8550    1.4859   -0.5052 H   0  0  0  0  0  0  0  0  0  0  0  0
   -0.7085   -1.2657    0.2171 H   0  0  0  0  0  0  0  0  0  0  0  0
   -0.8211   -0.6096   -1.4175 H   0  0  0  0  0  0  0  0  0  0  0  0
    0.7708    0.6458    0.8825 H   0  0  0  0  0  0  0  0  0  0  0  0
    0.6583    1.3019   -0.7522 H   0  0  0  0  0  0  0  0  0  0  0  0
    1.7968   -1.4505   -0.0293 H   0  0  0  0  0  0  0  0  0  0  0  0
    1.6843   -0.7942   -1.6644 H   0  0  0  0  0  0  0  0  0  0  0  0
    3.3085    0.4452    0.6338 H   0  0  0  0  0  0  0  0  0  0  0  0
    3.1952    1.1058   -1.0120 H   0  0  0  0  0  0  0  0  0  0  0  0
  1  2  1  0
  2  3  1  0
  3  4  1  0
  4  5  1  0
  5  6  1  0
  6  7  1  0
  1  8  1  0
  1  9  1  0
  1 10  1  0
  2 11  1  0
  2 12  1  0
  3 13  1  0
  3 14  1  0
  4 15  1  0
  4 16  1  0
  5 17  1  0
  5 18  1  0
  6 19  1  0
  6 20  1  0
M  END
$$$$
