
     RDKit          3D

 12 12  0  0  0  0  0  0  0  0999 V2000
    0.8619    1.1268    0.0139 C   0  0  0  0  0  0  0  0  0  0  0  0
    1.4268   -0.1446    0.0053 C   0  0  0  0  0  0  0  0  0  0  0  0
    0.6185   -1.2768   -0.0084 C   0  0  0  0  0  0  0  0  0  0  0  0
   -0.7731   -1.1366   -0.0136 C   0  0  0  0  0  0  0  0  0  0  0  0
   -1.3616    0.1380   -0.0051 C   0  0  0  0  0  0  0  0  0  0  0  0
   -0.5295    1.2686    0.0087 C   0  0  0  0  0  0  0  0  0  0  0  0
   -1.1547    2.8823    0.0200 Cl  0  0  0  0  0  0  0  0  0  0  0  0
   -3.0877    0.3128   -0.0115 Cl  0  0  0  0  0  0  0  0  0  0  0  0
   -1.7091   -2.5921   -0.0307 Cl  0  0  0  0  0  0  0  0  0  0  0  0
    3.1375   -0.3179    0.0117 Cl  0  0  0  0  0  0  0  0  0  0  0  0
    1.5018    2.0065    0.0246 H   0  0  0  0  0  0  0  0  0  0  0  0
    1.0690   -2.2669   -0.0150 H   0  0  0  0  0  0  0  0  0  0  0  0
  1  2  2  0
  2  3  1  0
  3  4  2  0
  4  5  1  0
  5  6  2  0
  6  7  1  0
  5  8  1  0
  4  9  1  0
  2 10  1  0
  6  1  1  0
  1 11  1  0
  3 12  1  0
M  END
$$$$
