
     RDKit          3D

 27 27  0  0  0  0  0  0  0  0999 V2000
    4.0730    0.0548   -0.5853 C   0  0  0  0  0  0  0  0  0  0  0  0
    2.5817   -0.1001   -0.5010 C   0  0  0  0  0  0  0  0  0  0  0  0
    1.9082   -1.2569   -0.4850 C   0  0  0  0  0  0  0  0  0  0  0  0
    0.4132   -1.2054   -0.4728 C   0  0  0  0  0  0  0  0  0  0  0  0
   -0.2241   -2.1834   -0.8605 O   0  0  0  0  0  0  0  0  0  0  0  0
   -0.1615   -0.0123   -0.0320 N   0  0  0  0  0  0  0  0  0  0  0  0
    0.5162    1.1696   -0.3027 C   0  0  0  0  0  0  0  0  0  0  0  0
    0.0137    2.2845   -0.4156 O   0  0  0  0  0  0  0  0  0  0  0  0
    1.8711    1.0697   -0.4719 N   0  0  0  0  0  0  0  0  0  0  0  0
   -1.6433    0.0358    0.2287 C   0  0  0  0  0  0  0  0  0  0  0  0
   -2.0326    1.2095    1.1684 C   0  0  0  0  0  0  0  0  0  0  0  0
   -2.4189    0.1810   -1.0934 C   0  0  0  0  0  0  0  0  0  0  0  0
   -2.1438   -1.2341    0.9699 C   0  0  0  0  0  0  0  0  0  0  0  0
    2.6514   -2.8079   -0.5607 Cl  0  0  0  0  0  0  0  0  0  0  0  0
    4.3447    0.6088   -1.4905 H   0  0  0  0  0  0  0  0  0  0  0  0
    4.4425    0.6136    0.2816 H   0  0  0  0  0  0  0  0  0  0  0  0
    4.6096   -0.8970   -0.6112 H   0  0  0  0  0  0  0  0  0  0  0  0
    2.3436    1.9601   -0.5895 H   0  0  0  0  0  0  0  0  0  0  0  0
   -3.0667    1.1130    1.5211 H   0  0  0  0  0  0  0  0  0  0  0  0
   -1.9864    2.1841    0.6752 H   0  0  0  0  0  0  0  0  0  0  0  0
   -1.3810    1.2392    2.0490 H   0  0  0  0  0  0  0  0  0  0  0  0
   -2.2228   -0.6587   -1.7685 H   0  0  0  0  0  0  0  0  0  0  0  0
   -3.4996    0.2194   -0.9159 H   0  0  0  0  0  0  0  0  0  0  0  0
   -2.1361    1.0963   -1.6245 H   0  0  0  0  0  0  0  0  0  0  0  0
   -1.5107   -1.4564    1.8365 H   0  0  0  0  0  0  0  0  0  0  0  0
   -3.1716   -1.1069    1.3308 H   0  0  0  0  0  0  0  0  0  0  0  0
   -2.1697   -2.1205    0.3307 H   0  0  0  0  0  0  0  0  0  0  0  0
  1  2  1  0
  2  3  2  0
  3  4  1  0
  4  5  2  0
  4  6  1  0
  6  7  1  0
  7  8  2  0
  7  9  1  0
  6 10  1  0
 10 11  1  0
 10 12  1  0
 10 13  1  0
  3 14  1  0
  9  2  1  0
  1 15  1  0
  1 16  1  0
  1 17  1  0
  9 18  1  0
 11 19  1  0
 11 20  1  0
 11 21  1  0
 12 22  1  0
 12 23  1  0
 12 24  1  0
 13 25  1  0
 13 26  1  0
 13 27  1  0
M  END
$$$$
