
     RDKit          3D

 16 16  0  0  0  0  0  0  0  0999 V2000
   -2.2893    0.2499    0.4550 C   0  0  0  0  0  0  0  0  0  0  0  0
   -1.4210    1.3159    0.2198 C   0  0  0  0  0  0  0  0  0  0  0  0
   -0.0842    1.0728   -0.1068 C   0  0  0  0  0  0  0  0  0  0  0  0
    0.3877   -0.2435   -0.1923 C   0  0  0  0  0  0  0  0  0  0  0  0
   -0.4934   -1.3094    0.0302 C   0  0  0  0  0  0  0  0  0  0  0  0
   -1.8279   -1.0621    0.3572 C   0  0  0  0  0  0  0  0  0  0  0  0
    1.8003   -0.5573   -0.5370 C   0  0  0  0  0  0  0  0  0  0  0  0
    2.1293   -1.6501   -0.9804 O   0  0  0  0  0  0  0  0  0  0  0  0
    2.7378    0.4109   -0.3018 N   0  0  0  0  0  0  0  0  0  0  0  0
   -3.3300    0.4414    0.7058 H   0  0  0  0  0  0  0  0  0  0  0  0
   -1.7887    2.3374    0.2815 H   0  0  0  0  0  0  0  0  0  0  0  0
    0.5647    1.9175   -0.3167 H   0  0  0  0  0  0  0  0  0  0  0  0
   -0.1401   -2.3358   -0.0498 H   0  0  0  0  0  0  0  0  0  0  0  0
   -2.5063   -1.8936    0.5313 H   0  0  0  0  0  0  0  0  0  0  0  0
    2.5602    1.1842    0.3222 H   0  0  0  0  0  0  0  0  0  0  0  0
    3.7010    0.1220   -0.4182 H   0  0  0  0  0  0  0  0  0  0  0  0
  1  2  2  0
  2  3  1  0
  3  4  2  0
  4  5  1  0
  5  6  2  0
  4  7  1  0
  7  8  2  0
  7  9  1  0
  6  1  1  0
  1 10  1  0
  2 11  1  0
  3 12  1  0
  5 13  1  0
  6 14  1  0
  9 15  1  0
  9 16  1  0
M  END
$$$$
