
     RDKit          3D

 14 13  0  0  0  0  0  0  0  0999 V2000
   -1.5327    0.1751    0.2501 C   0  0  0  0  0  0  0  0  0  0  0  0
   -0.0549    0.5574    0.2244 C   0  0  0  0  0  0  0  0  0  0  0  0
    0.8639   -0.6614    0.3362 C   0  0  0  0  0  0  0  0  0  0  0  0
    2.2194   -0.2031    0.2885 O   0  0  0  0  0  0  0  0  0  0  0  0
    0.2215    1.2187   -1.0230 O   0  0  0  0  0  0  0  0  0  0  0  0
   -1.8467   -0.6482   -0.8726 O   0  0  0  0  0  0  0  0  0  0  0  0
   -2.1614    1.0688    0.1826 H   0  0  0  0  0  0  0  0  0  0  0  0
   -1.7905   -0.3677    1.1642 H   0  0  0  0  0  0  0  0  0  0  0  0
    0.1670    1.2719    1.0247 H   0  0  0  0  0  0  0  0  0  0  0  0
    0.7048   -1.1940    1.2785 H   0  0  0  0  0  0  0  0  0  0  0  0
    0.7228   -1.3469   -0.5054 H   0  0  0  0  0  0  0  0  0  0  0  0
    2.7823   -0.9959    0.3468 H   0  0  0  0  0  0  0  0  0  0  0  0
    1.1982    1.2848   -1.0512 H   0  0  0  0  0  0  0  0  0  0  0  0
   -1.4937   -0.1595   -1.6438 H   0  0  0  0  0  0  0  0  0  0  0  0
  1  2  1  0
  2  3  1  0
  3  4  1  0
  2  5  1  0
  1  6  1  0
  1  7  1  0
  1  8  1  0
  2  9  1  0
  3 10  1  0
  3 11  1  0
  4 12  1  0
  5 13  1  0
  6 14  1  0
M  END
$$$$
