
     RDKit          3D

 17 17  0  0  0  0  0  0  0  0999 V2000
   -2.3811   -0.2426   -1.0518 C   0  0  0  0  0  0  0  0  0  0  0  0
   -1.1934    0.0609   -0.1959 C   0  0  0  0  0  0  0  0  0  0  0  0
    0.0821   -0.3984   -0.5331 C   0  0  0  0  0  0  0  0  0  0  0  0
    1.1773   -0.0768    0.2723 C   0  0  0  0  0  0  0  0  0  0  0  0
    0.9444    0.7331    1.3777 C   0  0  0  0  0  0  0  0  0  0  0  0
   -0.2710    1.2082    1.7279 N   0  0  0  0  0  0  0  0  0  0  0  0
   -1.3079    0.8640    0.9329 C   0  0  0  0  0  0  0  0  0  0  0  0
    2.5590   -0.5296   -0.0762 C   0  0  0  0  0  0  0  0  0  0  0  0
   -2.4957    0.5268   -1.8215 H   0  0  0  0  0  0  0  0  0  0  0  0
   -3.2963   -0.2811   -0.4516 H   0  0  0  0  0  0  0  0  0  0  0  0
   -2.2721   -1.2169   -1.5397 H   0  0  0  0  0  0  0  0  0  0  0  0
    0.2224   -1.0079   -1.4229 H   0  0  0  0  0  0  0  0  0  0  0  0
    1.7550    1.0372    2.0348 H   0  0  0  0  0  0  0  0  0  0  0  0
   -2.2677    1.2708    1.2404 H   0  0  0  0  0  0  0  0  0  0  0  0
    2.5351   -1.4961   -0.5904 H   0  0  0  0  0  0  0  0  0  0  0  0
    3.1681   -0.6566    0.8250 H   0  0  0  0  0  0  0  0  0  0  0  0
    3.0417    0.2051   -0.7280 H   0  0  0  0  0  0  0  0  0  0  0  0
  1  2  1  0
  2  3  2  0
  3  4  1  0
  4  5  2  0
  5  6  1  0
  6  7  2  0
  4  8  1  0
  7  2  1  0
  1  9  1  0
  1 10  1  0
  1 11  1  0
  3 12  1  0
  5 13  1  0
  7 14  1  0
  8 15  1  0
  8 16  1  0
  8 17  1  0
M  END
$$$$
