
     RDKit          3D

 28 27  0  0  0  0  0  0  0  0999 V2000
   -4.8617    0.2817   -0.1773 C   0  0  0  0  0  0  0  0  0  0  0  0
   -3.5827   -0.5150   -0.3798 C   0  0  0  0  0  0  0  0  0  0  0  0
   -2.3436    0.3321   -0.0912 C   0  0  0  0  0  0  0  0  0  0  0  0
   -1.0593   -0.4730   -0.2960 C   0  0  0  0  0  0  0  0  0  0  0  0
    0.1808    0.3747   -0.0072 C   0  0  0  0  0  0  0  0  0  0  0  0
    1.4651   -0.4305   -0.2121 C   0  0  0  0  0  0  0  0  0  0  0  0
    2.7059    0.4172    0.0768 C   0  0  0  0  0  0  0  0  0  0  0  0
    3.9864   -0.3904   -0.1288 C   0  0  0  0  0  0  0  0  0  0  0  0
    5.1554    0.4320    0.1594 N   0  0  0  0  0  0  0  0  0  0  0  0
   -5.7350   -0.3431   -0.3890 H   0  0  0  0  0  0  0  0  0  0  0  0
   -4.9419    0.6394    0.8542 H   0  0  0  0  0  0  0  0  0  0  0  0
   -4.8940    1.1483   -0.8453 H   0  0  0  0  0  0  0  0  0  0  0  0
   -3.5491   -0.8849   -1.4111 H   0  0  0  0  0  0  0  0  0  0  0  0
   -3.5968   -1.3910    0.2790 H   0  0  0  0  0  0  0  0  0  0  0  0
   -2.3366    1.2091   -0.7498 H   0  0  0  0  0  0  0  0  0  0  0  0
   -2.3843    0.7031    0.9402 H   0  0  0  0  0  0  0  0  0  0  0  0
   -1.0188   -0.8437   -1.3275 H   0  0  0  0  0  0  0  0  0  0  0  0
   -1.0664   -1.3498    0.3628 H   0  0  0  0  0  0  0  0  0  0  0  0
    0.1879    1.2516   -0.6660 H   0  0  0  0  0  0  0  0  0  0  0  0
    0.1403    0.7454    1.0242 H   0  0  0  0  0  0  0  0  0  0  0  0
    1.4579   -1.3074    0.4467 H   0  0  0  0  0  0  0  0  0  0  0  0
    1.5057   -0.8011   -1.2436 H   0  0  0  0  0  0  0  0  0  0  0  0
    2.6628    0.7883    1.1086 H   0  0  0  0  0  0  0  0  0  0  0  0
    2.7094    1.2948   -0.5820 H   0  0  0  0  0  0  0  0  0  0  0  0
    4.0438   -0.7539   -1.1607 H   0  0  0  0  0  0  0  0  0  0  0  0
    3.9920   -1.2629    0.5332 H   0  0  0  0  0  0  0  0  0  0  0  0
    5.1759    1.2327   -0.4708 H   0  0  0  0  0  0  0  0  0  0  0  0
    6.0009   -0.1039   -0.0320 H   0  0  0  0  0  0  0  0  0  0  0  0
  1  2  1  0
  2  3  1  0
  3  4  1  0
  4  5  1  0
  5  6  1  0
  6  7  1  0
  7  8  1  0
  8  9  1  0
  1 10  1  0
  1 11  1  0
  1 12  1  0
  2 13  1  0
  2 14  1  0
  3 15  1  0
  3 16  1  0
  4 17  1  0
  4 18  1  0
  5 19  1  0
  5 20  1  0
  6 21  1  0
  6 22  1  0
  7 23  1  0
  7 24  1  0
  8 25  1  0
  8 26  1  0
  9 27  1  0
  9 28  1  0
M  END
$$$$
