
     RDKit          3D

 17 16  0  0  0  0  0  0  0  0999 V2000
   -2.5353    0.4882    0.0806 C   0  0  0  0  0  0  0  0  0  0  0  0
   -1.3138   -0.3674    0.3761 C   0  0  0  0  0  0  0  0  0  0  0  0
   -0.0292    0.3036   -0.1097 C   0  0  0  0  0  0  0  0  0  0  0  0
    1.1973   -0.5597    0.1890 C   0  0  0  0  0  0  0  0  0  0  0  0
    2.4696    0.1138   -0.2966 C   0  0  0  0  0  0  0  0  0  0  0  0
    4.0056   -1.0142    0.1013 Br  0  0  0  0  0  0  0  0  0  0  0  0
   -2.4638    1.4598    0.5799 H   0  0  0  0  0  0  0  0  0  0  0  0
   -2.6423    0.6612   -0.9950 H   0  0  0  0  0  0  0  0  0  0  0  0
   -3.4424   -0.0105    0.4363 H   0  0  0  0  0  0  0  0  0  0  0  0
   -1.2542   -0.5485    1.4556 H   0  0  0  0  0  0  0  0  0  0  0  0
   -1.4316   -1.3426   -0.1106 H   0  0  0  0  0  0  0  0  0  0  0  0
    0.0817    1.2804    0.3769 H   0  0  0  0  0  0  0  0  0  0  0  0
   -0.0958    0.4862   -1.1893 H   0  0  0  0  0  0  0  0  0  0  0  0
    1.2604   -0.7460    1.2685 H   0  0  0  0  0  0  0  0  0  0  0  0
    1.0833   -1.5383   -0.2940 H   0  0  0  0  0  0  0  0  0  0  0  0
    2.4654    0.2652   -1.3795 H   0  0  0  0  0  0  0  0  0  0  0  0
    2.6451    1.0690    0.2057 H   0  0  0  0  0  0  0  0  0  0  0  0
  1  2  1  0
  2  3  1  0
  3  4  1  0
  4  5  1  0
  5  6  1  0
  1  7  1  0
  1  8  1  0
  1  9  1  0
  2 10  1  0
  2 11  1  0
  3 12  1  0
  3 13  1  0
  4 14  1  0
  4 15  1  0
  5 16  1  0
  5 17  1  0
M  END
$$$$
