
     RDKit          3D

  4  3  0  0  0  0  0  0  0  0999 V2000
    0.0061   -0.0046    0.2955 N   0  0  0  0  0  0  0  0  0  0  0  0
    0.8378   -0.4193   -0.1224 H   0  0  0  0  0  0  0  0  0  0  0  0
   -0.0573    0.9395   -0.0826 H   0  0  0  0  0  0  0  0  0  0  0  0
   -0.7866   -0.5155   -0.0905 H   0  0  0  0  0  0  0  0  0  0  0  0
  1  2  1  0
  1  3  1  0
  1  4  1  0
M  END
$$$$
