
     RDKit          3D

 18 17  0  0  0  0  0  0  0  0999 V2000
   -2.7861    0.1865   -0.3512 C   0  0  0  0  0  0  0  0  0  0  0  0
   -1.5142   -0.4540    0.1813 C   0  0  0  0  0  0  0  0  0  0  0  0
   -0.2667    0.2466   -0.3563 C   0  0  0  0  0  0  0  0  0  0  0  0
    1.0084   -0.3996    0.1808 C   0  0  0  0  0  0  0  0  0  0  0  0
    2.2558    0.2926   -0.3501 C   0  0  0  0  0  0  0  0  0  0  0  0
    3.4026   -0.3536    0.1849 O   0  0  0  0  0  0  0  0  0  0  0  0
   -3.6655   -0.3300    0.0458 H   0  0  0  0  0  0  0  0  0  0  0  0
   -2.8484    1.2390   -0.0566 H   0  0  0  0  0  0  0  0  0  0  0  0
   -2.8248    0.1324   -1.4439 H   0  0  0  0  0  0  0  0  0  0  0  0
   -1.4985   -1.5126   -0.1030 H   0  0  0  0  0  0  0  0  0  0  0  0
   -1.5220   -0.4122    1.2767 H   0  0  0  0  0  0  0  0  0  0  0  0
   -0.2658    0.2056   -1.4524 H   0  0  0  0  0  0  0  0  0  0  0  0
   -0.2893    1.3059   -0.0728 H   0  0  0  0  0  0  0  0  0  0  0  0
    1.0394   -1.4622   -0.0910 H   0  0  0  0  0  0  0  0  0  0  0  0
    1.0161   -0.3706    1.2776 H   0  0  0  0  0  0  0  0  0  0  0  0
    2.3006    0.2335   -1.4422 H   0  0  0  0  0  0  0  0  0  0  0  0
    2.2769    1.3448   -0.0488 H   0  0  0  0  0  0  0  0  0  0  0  0
    4.1815    0.1079   -0.1700 H   0  0  0  0  0  0  0  0  0  0  0  0
  1  2  1  0
  2  3  1  0
  3  4  1  0
  4  5  1  0
  5  6  1  0
  1  7  1  0
  1  8  1  0
  1  9  1  0
  2 10  1  0
  2 11  1  0
  3 12  1  0
  3 13  1  0
  4 14  1  0
  4 15  1  0
  5 16  1  0
  5 17  1  0
  6 18  1  0
M  END
$$$$
