
     RDKit          3D

 26 25  0  0  0  0  0  0  0  0999 V2000
   -3.4462    0.2968   -0.5641 C   0  0  0  0  0  0  0  0  0  0  0  0
   -2.3609    0.4296    0.4924 C   0  0  0  0  0  0  0  0  0  0  0  0
   -1.0222   -0.1184   -0.0069 C   0  0  0  0  0  0  0  0  0  0  0  0
    0.0641    0.0216    1.0645 C   0  0  0  0  0  0  0  0  0  0  0  0
    1.4543   -0.5162    0.6659 C   0  0  1  0  0  0  0  0  0  0  0  0
    1.4355   -2.0389    0.4947 C   0  0  0  0  0  0  0  0  0  0  0  0
    2.0582    0.1402   -0.5898 C   0  0  0  0  0  0  0  0  0  0  0  0
    2.2048    1.6509   -0.4796 C   0  0  0  0  0  0  0  0  0  0  0  0
   -3.1821    0.8518   -1.4698 H   0  0  0  0  0  0  0  0  0  0  0  0
   -4.3935    0.6942   -0.1863 H   0  0  0  0  0  0  0  0  0  0  0  0
   -3.6023   -0.7519   -0.8365 H   0  0  0  0  0  0  0  0  0  0  0  0
   -2.6706   -0.1093    1.3954 H   0  0  0  0  0  0  0  0  0  0  0  0
   -2.2524    1.4857    0.7653 H   0  0  0  0  0  0  0  0  0  0  0  0
   -1.1466   -1.1714   -0.2824 H   0  0  0  0  0  0  0  0  0  0  0  0
   -0.7309    0.4239   -0.9130 H   0  0  0  0  0  0  0  0  0  0  0  0
   -0.2640   -0.5009    1.9728 H   0  0  0  0  0  0  0  0  0  0  0  0
    0.1552    1.0775    1.3475 H   0  0  0  0  0  0  0  0  0  0  0  0
    2.1271   -0.3005    1.5074 H   0  0  0  0  0  0  0  0  0  0  0  0
    0.8513   -2.3426   -0.3796 H   0  0  0  0  0  0  0  0  0  0  0  0
    1.0098   -2.5266    1.3779 H   0  0  0  0  0  0  0  0  0  0  0  0
    2.4529   -2.4230    0.3626 H   0  0  0  0  0  0  0  0  0  0  0  0
    1.4616   -0.1018   -1.4769 H   0  0  0  0  0  0  0  0  0  0  0  0
    3.0544   -0.2854   -0.7656 H   0  0  0  0  0  0  0  0  0  0  0  0
    2.7740    1.9266    0.4137 H   0  0  0  0  0  0  0  0  0  0  0  0
    2.7372    2.0404   -1.3535 H   0  0  0  0  0  0  0  0  0  0  0  0
    1.2312    2.1479   -0.4389 H   0  0  0  0  0  0  0  0  0  0  0  0
  1  2  1  0
  2  3  1  0
  3  4  1  0
  4  5  1  0
  5  6  1  0
  5  7  1  0
  7  8  1  0
  1  9  1  0
  1 10  1  0
  1 11  1  0
  2 12  1  0
  2 13  1  0
  3 14  1  0
  3 15  1  0
  4 16  1  0
  4 17  1  0
  5 18  1  1
  6 19  1  0
  6 20  1  0
  6 21  1  0
  7 22  1  0
  7 23  1  0
  8 24  1  0
  8 25  1  0
  8 26  1  0
M  END
$$$$
