
     RDKit          3D

 31 31  0  0  0  0  0  0  0  0999 V2000
    3.6271    0.2726   -0.6790 C   0  0  0  0  0  0  0  0  0  0  0  0
    2.1699   -0.1695   -0.5604 C   0  0  2  0  0  0  0  0  0  0  0  0
    1.2564    0.7507   -1.3766 C   0  0  0  0  0  0  0  0  0  0  0  0
   -0.2150    0.3584   -1.2376 C   0  0  0  0  0  0  0  0  0  0  0  0
   -0.6654    0.3325    0.2346 C   0  0  2  0  0  0  0  0  0  0  0  0
    0.2592   -0.5973    1.0513 C   0  0  1  0  0  0  0  0  0  0  0  0
    1.7306   -0.1999    0.9058 C   0  0  0  0  0  0  0  0  0  0  0  0
   -0.0955   -0.5308    2.4302 O   0  0  0  0  0  0  0  0  0  0  0  0
   -2.1755   -0.0063    0.4215 C   0  0  0  0  0  0  0  0  0  0  0  0
   -3.0790    1.0584   -0.2120 C   0  0  0  0  0  0  0  0  0  0  0  0
   -2.5768   -1.3898   -0.0975 C   0  0  0  0  0  0  0  0  0  0  0  0
    4.2841   -0.4025   -0.1206 H   0  0  0  0  0  0  0  0  0  0  0  0
    3.7700    1.2853   -0.2870 H   0  0  0  0  0  0  0  0  0  0  0  0
    3.9508    0.2657   -1.7252 H   0  0  0  0  0  0  0  0  0  0  0  0
    2.0917   -1.1864   -0.9673 H   0  0  0  0  0  0  0  0  0  0  0  0
    1.5398    0.7135   -2.4353 H   0  0  0  0  0  0  0  0  0  0  0  0
    1.3841    1.7911   -1.0510 H   0  0  0  0  0  0  0  0  0  0  0  0
   -0.8156    1.0721   -1.8111 H   0  0  0  0  0  0  0  0  0  0  0  0
   -0.3606   -0.6263   -1.6970 H   0  0  0  0  0  0  0  0  0  0  0  0
   -0.5345    1.3473    0.6398 H   0  0  0  0  0  0  0  0  0  0  0  0
    0.1375   -1.6363    0.7255 H   0  0  0  0  0  0  0  0  0  0  0  0
    2.3548   -0.9023    1.4729 H   0  0  0  0  0  0  0  0  0  0  0  0
    1.8925    0.7801    1.3750 H   0  0  0  0  0  0  0  0  0  0  0  0
    0.4894   -1.1389    2.9135 H   0  0  0  0  0  0  0  0  0  0  0  0
   -2.3899    0.0099    1.4982 H   0  0  0  0  0  0  0  0  0  0  0  0
   -2.8014    2.0611    0.1293 H   0  0  0  0  0  0  0  0  0  0  0  0
   -3.0287    1.0398   -1.3050 H   0  0  0  0  0  0  0  0  0  0  0  0
   -4.1240    0.8904    0.0711 H   0  0  0  0  0  0  0  0  0  0  0  0
   -3.6362   -1.5810    0.1076 H   0  0  0  0  0  0  0  0  0  0  0  0
   -2.4325   -1.4770   -1.1787 H   0  0  0  0  0  0  0  0  0  0  0  0
   -2.0072   -2.1847    0.3916 H   0  0  0  0  0  0  0  0  0  0  0  0
  1  2  1  0
  2  3  1  0
  3  4  1  0
  4  5  1  0
  5  6  1  0
  6  7  1  0
  6  8  1  0
  5  9  1  0
  9 10  1  0
  9 11  1  0
  7  2  1  0
  1 12  1  0
  1 13  1  0
  1 14  1  0
  2 15  1  6
  3 16  1  0
  3 17  1  0
  4 18  1  0
  4 19  1  0
  5 20  1  1
  6 21  1  6
  7 22  1  0
  7 23  1  0
  8 24  1  0
  9 25  1  0
 10 26  1  0
 10 27  1  0
 10 28  1  0
 11 29  1  0
 11 30  1  0
 11 31  1  0
M  END
$$$$
