
     RDKit          3D

 21 20  0  0  0  0  0  0  0  0999 V2000
    3.3570   -0.7708   -0.1554 C   0  0  0  0  0  0  0  0  0  0  0  0
    2.1921    0.2024   -0.0701 C   0  0  0  0  0  0  0  0  0  0  0  0
    0.8509   -0.5304   -0.0451 C   0  0  0  0  0  0  0  0  0  0  0  0
   -0.3188    0.4522    0.0409 C   0  0  0  0  0  0  0  0  0  0  0  0
   -1.6605   -0.2828    0.0653 C   0  0  0  0  0  0  0  0  0  0  0  0
   -2.8095    0.6815    0.1366 C   0  0  0  0  0  0  0  0  0  0  0  0
   -3.6851    0.7325    1.1483 C   0  0  0  0  0  0  0  0  0  0  0  0
    3.2969   -1.3760   -1.0656 H   0  0  0  0  0  0  0  0  0  0  0  0
    4.3059   -0.2256   -0.1721 H   0  0  0  0  0  0  0  0  0  0  0  0
    3.3682   -1.4459    0.7063 H   0  0  0  0  0  0  0  0  0  0  0  0
    2.2996    0.8136    0.8335 H   0  0  0  0  0  0  0  0  0  0  0  0
    2.2287    0.8831   -0.9286 H   0  0  0  0  0  0  0  0  0  0  0  0
    0.7501   -1.1433   -0.9491 H   0  0  0  0  0  0  0  0  0  0  0  0
    0.8213   -1.2129    0.8130 H   0  0  0  0  0  0  0  0  0  0  0  0
   -0.2160    1.0657    0.9450 H   0  0  0  0  0  0  0  0  0  0  0  0
   -0.2852    1.1365   -0.8164 H   0  0  0  0  0  0  0  0  0  0  0  0
   -1.7705   -0.8864   -0.8436 H   0  0  0  0  0  0  0  0  0  0  0  0
   -1.6853   -0.9776    0.9137 H   0  0  0  0  0  0  0  0  0  0  0  0
   -2.9288    1.3682   -0.6992 H   0  0  0  0  0  0  0  0  0  0  0  0
   -3.6112    0.0661    2.0020 H   0  0  0  0  0  0  0  0  0  0  0  0
   -4.5000    1.4499    1.1415 H   0  0  0  0  0  0  0  0  0  0  0  0
  1  2  1  0
  2  3  1  0
  3  4  1  0
  4  5  1  0
  5  6  1  0
  6  7  2  3
  1  8  1  0
  1  9  1  0
  1 10  1  0
  2 11  1  0
  2 12  1  0
  3 13  1  0
  3 14  1  0
  4 15  1  0
  4 16  1  0
  5 17  1  0
  5 18  1  0
  6 19  1  0
  7 20  1  0
  7 21  1  0
M  END
$$$$
