
     RDKit          3D

 12 12  0  0  0  0  0  0  0  0999 V2000
   -0.0365   -1.3582    0.0244 C   0  0  0  0  0  0  0  0  0  0  0  0
    1.1497   -0.7427    0.0689 C   0  0  0  0  0  0  0  0  0  0  0  0
    1.1762    0.7462    0.0415 C   0  0  0  0  0  0  0  0  0  0  0  0
    2.2140    1.3993    0.0782 O   0  0  0  0  0  0  0  0  0  0  0  0
   -0.0507    1.3588   -0.0286 N   0  0  0  0  0  0  0  0  0  0  0  0
   -1.2590    0.7212   -0.0737 C   0  0  0  0  0  0  0  0  0  0  0  0
   -2.3220    1.3275   -0.1358 O   0  0  0  0  0  0  0  0  0  0  0  0
   -1.2050   -0.6470   -0.0448 N   0  0  0  0  0  0  0  0  0  0  0  0
    2.6268   -1.6086    0.1557 Cl  0  0  0  0  0  0  0  0  0  0  0  0
   -0.1315   -2.4393    0.0408 H   0  0  0  0  0  0  0  0  0  0  0  0
   -0.0620    2.3668   -0.0486 H   0  0  0  0  0  0  0  0  0  0  0  0
   -2.1000   -1.1241   -0.0781 H   0  0  0  0  0  0  0  0  0  0  0  0
  1  2  2  0
  2  3  1  0
  3  4  2  0
  3  5  1  0
  5  6  1  0
  6  7  2  0
  6  8  1  0
  2  9  1  0
  8  1  1  0
  1 10  1  0
  5 11  1  0
  8 12  1  0
M  END
$$$$
