
     RDKit          3D

 19 19  0  0  0  0  0  0  0  0999 V2000
    2.3970   -0.7073    0.2173 C   0  0  0  0  0  0  0  0  0  0  0  0
    1.4373    0.3725   -0.1988 C   0  0  0  0  0  0  0  0  0  0  0  0
    1.8681    1.5418   -0.7017 C   0  0  0  0  0  0  0  0  0  0  0  0
   -0.0099    0.1007   -0.0493 C   0  0  0  0  0  0  0  0  0  0  0  0
   -0.8677    1.0585    0.5141 C   0  0  0  0  0  0  0  0  0  0  0  0
   -2.2316    0.7967    0.6714 C   0  0  0  0  0  0  0  0  0  0  0  0
   -2.7571   -0.4288    0.2704 C   0  0  0  0  0  0  0  0  0  0  0  0
   -1.9193   -1.3925   -0.2853 C   0  0  0  0  0  0  0  0  0  0  0  0
   -0.5549   -1.1303   -0.4412 C   0  0  0  0  0  0  0  0  0  0  0  0
    2.3619   -1.5551   -0.4741 H   0  0  0  0  0  0  0  0  0  0  0  0
    3.4306   -0.3440    0.2364 H   0  0  0  0  0  0  0  0  0  0  0  0
    2.1624   -1.0656    1.2256 H   0  0  0  0  0  0  0  0  0  0  0  0
    1.1840    2.3191   -1.0284 H   0  0  0  0  0  0  0  0  0  0  0  0
    2.9275    1.7477   -0.8203 H   0  0  0  0  0  0  0  0  0  0  0  0
   -0.4773    2.0163    0.8501 H   0  0  0  0  0  0  0  0  0  0  0  0
   -2.8804    1.5497    1.1108 H   0  0  0  0  0  0  0  0  0  0  0  0
   -3.8174   -0.6331    0.3921 H   0  0  0  0  0  0  0  0  0  0  0  0
   -2.3261   -2.3498   -0.6006 H   0  0  0  0  0  0  0  0  0  0  0  0
    0.0729   -1.8965   -0.8886 H   0  0  0  0  0  0  0  0  0  0  0  0
  1  2  1  0
  2  3  2  3
  2  4  1  0
  4  5  2  0
  5  6  1  0
  6  7  2  0
  7  8  1  0
  8  9  2  0
  9  4  1  0
  1 10  1  0
  1 11  1  0
  1 12  1  0
  3 13  1  0
  3 14  1  0
  5 15  1  0
  6 16  1  0
  7 17  1  0
  8 18  1  0
  9 19  1  0
M  END
$$$$
