
     RDKit          3D

 16 16  0  0  0  0  0  0  0  0999 V2000
    0.7159   -0.8251   -0.8846 C   0  0  0  0  0  0  0  0  0  0  0  0
   -0.6660   -0.9753   -0.7311 C   0  0  0  0  0  0  0  0  0  0  0  0
   -1.3507   -0.1521    0.1697 C   0  0  0  0  0  0  0  0  0  0  0  0
   -0.6586    0.8028    0.9225 C   0  0  0  0  0  0  0  0  0  0  0  0
    0.7233    0.9388    0.7559 C   0  0  0  0  0  0  0  0  0  0  0  0
    1.4131    0.1632   -0.1818 C   0  0  0  0  0  0  0  0  0  0  0  0
    2.8078    0.2213   -0.2506 N   0  0  0  0  0  0  0  0  0  0  0  0
   -2.8006   -0.3045    0.3400 N   0  0  0  0  0  4  0  0  0  0  0  0
   -3.3675    0.4400    1.1529 O   0  0  0  0  0  1  0  0  0  0  0  0
   -3.3742   -1.1665   -0.3413 O   0  0  0  0  0  0  0  0  0  0  0  0
    1.2470   -1.4907   -1.5614 H   0  0  0  0  0  0  0  0  0  0  0  0
   -1.1826   -1.7409   -1.3057 H   0  0  0  0  0  0  0  0  0  0  0  0
   -1.1693    1.4337    1.6467 H   0  0  0  0  0  0  0  0  0  0  0  0
    1.2602    1.6596    1.3685 H   0  0  0  0  0  0  0  0  0  0  0  0
    3.2037    1.1152    0.0242 H   0  0  0  0  0  0  0  0  0  0  0  0
    3.1985   -0.1193   -1.1239 H   0  0  0  0  0  0  0  0  0  0  0  0
  1  2  2  0
  2  3  1  0
  3  4  2  0
  4  5  1  0
  5  6  2  0
  6  7  1  0
  3  8  1  0
  8  9  1  0
  8 10  2  0
  6  1  1  0
  1 11  1  0
  2 12  1  0
  4 13  1  0
  5 14  1  0
  7 15  1  0
  7 16  1  0
M  CHG  2   8   1   9  -1
M  END
$$$$
