
     RDKit          3D

 19 18  0  0  0  0  0  0  0  0999 V2000
   -3.0898    0.0444   -0.0066 C   0  0  0  0  0  0  0  0  0  0  0  0
   -1.7428   -0.6005   -0.2914 C   0  0  0  0  0  0  0  0  0  0  0  0
   -0.5886    0.3475    0.0310 C   0  0  0  0  0  0  0  0  0  0  0  0
    0.7623   -0.3036   -0.2563 C   0  0  0  0  0  0  0  0  0  0  0  0
    1.9299    0.6160    0.0549 C   0  0  0  0  0  0  0  0  0  0  0  0
    1.7838    1.7571    0.4902 O   0  0  0  0  0  0  0  0  0  0  0  0
    3.3039    0.0525   -0.2000 C   0  0  0  0  0  0  0  0  0  0  0  0
   -3.9008   -0.6511   -0.2442 H   0  0  0  0  0  0  0  0  0  0  0  0
   -3.1772    0.3203    1.0491 H   0  0  0  0  0  0  0  0  0  0  0  0
   -3.2282    0.9468   -0.6105 H   0  0  0  0  0  0  0  0  0  0  0  0
   -1.7004   -0.8934   -1.3470 H   0  0  0  0  0  0  0  0  0  0  0  0
   -1.6497   -1.5165    0.3036 H   0  0  0  0  0  0  0  0  0  0  0  0
   -0.6889    1.2663   -0.5603 H   0  0  0  0  0  0  0  0  0  0  0  0
   -0.6383    0.6448    1.0860 H   0  0  0  0  0  0  0  0  0  0  0  0
    0.8765   -1.2092    0.3498 H   0  0  0  0  0  0  0  0  0  0  0  0
    0.8254   -0.5810   -1.3144 H   0  0  0  0  0  0  0  0  0  0  0  0
    4.0620    0.7972    0.0578 H   0  0  0  0  0  0  0  0  0  0  0  0
    3.4562   -0.8353    0.4187 H   0  0  0  0  0  0  0  0  0  0  0  0
    3.4047   -0.2024   -1.2578 H   0  0  0  0  0  0  0  0  0  0  0  0
  1  2  1  0
  2  3  1  0
  3  4  1  0
  4  5  1  0
  5  6  2  0
  5  7  1  0
  1  8  1  0
  1  9  1  0
  1 10  1  0
  2 11  1  0
  2 12  1  0
  3 13  1  0
  3 14  1  0
  4 15  1  0
  4 16  1  0
  7 17  1  0
  7 18  1  0
  7 19  1  0
M  END
$$$$
