
     RDKit          3D

 18 18  0  0  0  0  0  0  0  0999 V2000
   -1.3381    1.6565   -0.0559 C   0  0  0  0  0  0  0  0  0  0  0  0
   -0.1554    0.7276   -0.0285 C   0  0  0  0  0  0  0  0  0  0  0  0
    1.1411    1.2649   -0.0625 C   0  0  0  0  0  0  0  0  0  0  0  0
    2.2599    0.4326   -0.0385 C   0  0  0  0  0  0  0  0  0  0  0  0
    2.0971   -0.9474    0.0198 C   0  0  0  0  0  0  0  0  0  0  0  0
    0.8154   -1.4961    0.0541 C   0  0  0  0  0  0  0  0  0  0  0  0
   -0.3205   -0.6714    0.0305 C   0  0  0  0  0  0  0  0  0  0  0  0
   -1.6867   -1.2991    0.0689 C   0  0  0  0  0  0  0  0  0  0  0  0
   -1.9403    1.5323    0.8496 H   0  0  0  0  0  0  0  0  0  0  0  0
   -1.0251    2.7050   -0.1019 H   0  0  0  0  0  0  0  0  0  0  0  0
   -1.9567    1.4588   -0.9370 H   0  0  0  0  0  0  0  0  0  0  0  0
    1.2886    2.3417   -0.1081 H   0  0  0  0  0  0  0  0  0  0  0  0
    3.2575    0.8625   -0.0653 H   0  0  0  0  0  0  0  0  0  0  0  0
    2.9672   -1.5979    0.0386 H   0  0  0  0  0  0  0  0  0  0  0  0
    0.7082   -2.5776    0.0995 H   0  0  0  0  0  0  0  0  0  0  0  0
   -2.2348   -0.9636    0.9549 H   0  0  0  0  0  0  0  0  0  0  0  0
   -1.6263   -2.3918    0.1133 H   0  0  0  0  0  0  0  0  0  0  0  0
   -2.2511   -1.0371   -0.8316 H   0  0  0  0  0  0  0  0  0  0  0  0
  1  2  1  0
  2  3  2  0
  3  4  1  0
  4  5  2  0
  5  6  1  0
  6  7  2  0
  7  8  1  0
  7  2  1  0
  1  9  1  0
  1 10  1  0
  1 11  1  0
  3 12  1  0
  4 13  1  0
  5 14  1  0
  6 15  1  0
  8 16  1  0
  8 17  1  0
  8 18  1  0
M  END
$$$$
