
     RDKit          3D

 13 12  0  0  0  0  0  0  0  0999 V2000
   -1.7335   -0.2515   -0.0115 C   0  0  0  0  0  0  0  0  0  0  0  0
   -0.4312    0.5274    0.0911 C   0  0  0  0  0  0  0  0  0  0  0  0
    0.7791   -0.3953   -0.0279 C   0  0  0  0  0  0  0  0  0  0  0  0
    2.0137    0.3727    0.0818 N   0  0  0  0  0  0  0  0  0  0  0  0
   -1.8084   -0.9974    0.7863 H   0  0  0  0  0  0  0  0  0  0  0  0
   -1.8068   -0.7682   -0.9737 H   0  0  0  0  0  0  0  0  0  0  0  0
   -2.5884    0.4264    0.0761 H   0  0  0  0  0  0  0  0  0  0  0  0
   -0.4068    1.0584    1.0505 H   0  0  0  0  0  0  0  0  0  0  0  0
   -0.4064    1.2867   -0.7000 H   0  0  0  0  0  0  0  0  0  0  0  0
    0.7625   -0.9207   -0.9891 H   0  0  0  0  0  0  0  0  0  0  0  0
    0.7570   -1.1504    0.7652 H   0  0  0  0  0  0  0  0  0  0  0  0
    2.8108   -0.2482   -0.0512 H   0  0  0  0  0  0  0  0  0  0  0  0
    2.0585    1.0600   -0.6695 H   0  0  0  0  0  0  0  0  0  0  0  0
  1  2  1  0
  2  3  1  0
  3  4  1  0
  1  5  1  0
  1  6  1  0
  1  7  1  0
  2  8  1  0
  2  9  1  0
  3 10  1  0
  3 11  1  0
  4 12  1  0
  4 13  1  0
M  END
$$$$
