
     RDKit          3D

 13 12  0  0  0  0  0  0  0  0999 V2000
    1.3091   -0.4397    0.1362 C   0  0  0  0  0  0  0  0  0  0  0  0
    0.0235   -0.1280   -0.4873 N   0  0  0  0  0  0  0  0  0  0  0  0
   -1.0496   -0.8966    0.1424 C   0  0  0  0  0  0  0  0  0  0  0  0
   -0.2538    1.3051   -0.3976 C   0  0  0  0  0  0  0  0  0  0  0  0
    1.5378   -1.5064    0.0334 H   0  0  0  0  0  0  0  0  0  0  0  0
    2.1198    0.1040   -0.3616 H   0  0  0  0  0  0  0  0  0  0  0  0
    1.3263   -0.1845    1.2021 H   0  0  0  0  0  0  0  0  0  0  0  0
   -0.8639   -1.9716    0.0397 H   0  0  0  0  0  0  0  0  0  0  0  0
   -1.1553   -0.6652    1.2086 H   0  0  0  0  0  0  0  0  0  0  0  0
   -2.0072   -0.6954   -0.3507 H   0  0  0  0  0  0  0  0  0  0  0  0
   -1.1969    1.5465   -0.9005 H   0  0  0  0  0  0  0  0  0  0  0  0
   -0.3181    1.6512    0.6405 H   0  0  0  0  0  0  0  0  0  0  0  0
    0.5284    1.8807   -0.9050 H   0  0  0  0  0  0  0  0  0  0  0  0
  1  2  1  0
  2  3  1  0
  2  4  1  0
  1  5  1  0
  1  6  1  0
  1  7  1  0
  3  8  1  0
  3  9  1  0
  3 10  1  0
  4 11  1  0
  4 12  1  0
  4 13  1  0
M  END
$$$$
