
     RDKit          3D

 29 28  0  0  0  0  0  0  0  0999 V2000
    5.0455   -0.3391    0.0416 C   0  0  0  0  0  0  0  0  0  0  0  0
    3.7394    0.0776   -0.6158 C   0  0  0  0  0  0  0  0  0  0  0  0
    2.5374   -0.2494    0.2698 C   0  0  0  0  0  0  0  0  0  0  0  0
    1.2257    0.1713   -0.3951 C   0  0  0  0  0  0  0  0  0  0  0  0
    0.0226   -0.1559    0.4910 C   0  0  0  0  0  0  0  0  0  0  0  0
   -1.2890    0.2648   -0.1739 C   0  0  0  0  0  0  0  0  0  0  0  0
   -2.4921   -0.0623    0.7122 C   0  0  0  0  0  0  0  0  0  0  0  0
   -3.8027    0.3581    0.0476 C   0  0  0  0  0  0  0  0  0  0  0  0
   -5.0012    0.0346    0.9254 C   0  0  0  0  0  0  0  0  0  0  0  0
    5.1887    0.1812    0.9941 H   0  0  0  0  0  0  0  0  0  0  0  0
    5.0622   -1.4168    0.2325 H   0  0  0  0  0  0  0  0  0  0  0  0
    5.8916   -0.0961   -0.6087 H   0  0  0  0  0  0  0  0  0  0  0  0
    3.7682    1.1538   -0.8224 H   0  0  0  0  0  0  0  0  0  0  0  0
    3.6425   -0.4354   -1.5797 H   0  0  0  0  0  0  0  0  0  0  0  0
    2.5156   -1.3263    0.4768 H   0  0  0  0  0  0  0  0  0  0  0  0
    2.6413    0.2628    1.2341 H   0  0  0  0  0  0  0  0  0  0  0  0
    1.2475    1.2482   -0.6019 H   0  0  0  0  0  0  0  0  0  0  0  0
    1.1218   -0.3411   -1.3593 H   0  0  0  0  0  0  0  0  0  0  0  0
    0.1265    0.3565    1.4552 H   0  0  0  0  0  0  0  0  0  0  0  0
    0.0008   -1.2328    0.6978 H   0  0  0  0  0  0  0  0  0  0  0  0
   -1.3929   -0.2476   -1.1381 H   0  0  0  0  0  0  0  0  0  0  0  0
   -1.2672    1.3417   -0.3807 H   0  0  0  0  0  0  0  0  0  0  0  0
   -2.3883    0.4499    1.6765 H   0  0  0  0  0  0  0  0  0  0  0  0
   -2.5140   -1.1392    0.9192 H   0  0  0  0  0  0  0  0  0  0  0  0
   -3.9134   -0.1544   -0.9151 H   0  0  0  0  0  0  0  0  0  0  0  0
   -3.7877    1.4348   -0.1577 H   0  0  0  0  0  0  0  0  0  0  0  0
   -5.9275    0.3435    0.4310 H   0  0  0  0  0  0  0  0  0  0  0  0
   -5.0639   -1.0402    1.1233 H   0  0  0  0  0  0  0  0  0  0  0  0
   -4.9374    0.5578    1.8848 H   0  0  0  0  0  0  0  0  0  0  0  0
  1  2  1  0
  2  3  1  0
  3  4  1  0
  4  5  1  0
  5  6  1  0
  6  7  1  0
  7  8  1  0
  8  9  1  0
  1 10  1  0
  1 11  1  0
  1 12  1  0
  2 13  1  0
  2 14  1  0
  3 15  1  0
  3 16  1  0
  4 17  1  0
  4 18  1  0
  5 19  1  0
  5 20  1  0
  6 21  1  0
  6 22  1  0
  7 23  1  0
  7 24  1  0
  8 25  1  0
  8 26  1  0
  9 27  1  0
  9 28  1  0
  9 29  1  0
M  END
$$$$
