
     RDKit          3D

 17 17  0  0  0  0  0  0  0  0999 V2000
   -1.2765   -1.4909   -0.0431 C   0  0  0  0  0  0  0  0  0  0  0  0
   -0.0355   -0.6452   -0.0054 C   0  0  0  0  0  0  0  0  0  0  0  0
    1.2215   -1.2587    0.0225 C   0  0  0  0  0  0  0  0  0  0  0  0
    2.3558   -0.4635    0.0571 C   0  0  0  0  0  0  0  0  0  0  0  0
    2.3271    0.8836    0.0657 N   0  0  0  0  0  0  0  0  0  0  0  0
    1.1050    1.4597    0.0385 C   0  0  0  0  0  0  0  0  0  0  0  0
   -0.0993    0.7581    0.0028 C   0  0  0  0  0  0  0  0  0  0  0  0
   -1.4009    1.5012   -0.0254 C   0  0  0  0  0  0  0  0  0  0  0  0
   -1.0344   -2.5591   -0.0443 H   0  0  0  0  0  0  0  0  0  0  0  0
   -1.8976   -1.2944    0.8365 H   0  0  0  0  0  0  0  0  0  0  0  0
   -1.8519   -1.2820   -0.9505 H   0  0  0  0  0  0  0  0  0  0  0  0
    1.3240   -2.3389    0.0176 H   0  0  0  0  0  0  0  0  0  0  0  0
    3.3475   -0.9057    0.0794 H   0  0  0  0  0  0  0  0  0  0  0  0
    1.1237    2.5467    0.0465 H   0  0  0  0  0  0  0  0  0  0  0  0
   -2.0045    1.2456    0.8512 H   0  0  0  0  0  0  0  0  0  0  0  0
   -1.2453    2.5853   -0.0138 H   0  0  0  0  0  0  0  0  0  0  0  0
   -1.9587    1.2580   -0.9352 H   0  0  0  0  0  0  0  0  0  0  0  0
  1  2  1  0
  2  3  2  0
  3  4  1  0
  4  5  2  0
  5  6  1  0
  6  7  2  0
  7  8  1  0
  7  2  1  0
  1  9  1  0
  1 10  1  0
  1 11  1  0
  3 12  1  0
  4 13  1  0
  6 14  1  0
  8 15  1  0
  8 16  1  0
  8 17  1  0
M  END
$$$$
