
     RDKit          3D

 16 15  0  0  0  0  0  0  0  0999 V2000
   -2.5359   -0.1564    0.2223 C   0  0  0  0  0  0  0  0  0  0  0  0
   -1.2719    0.3505   -0.4483 C   0  0  0  0  0  0  0  0  0  0  0  0
   -0.0067   -0.1661    0.2168 C   0  0  0  0  0  0  0  0  0  0  0  0
   -0.0368   -0.9139    1.1929 O   0  0  0  0  0  0  0  0  0  0  0  0
    1.2982    0.3033   -0.4052 C   0  0  0  0  0  0  0  0  0  0  0  0
    2.5196   -0.2491    0.3071 C   0  0  0  0  0  0  0  0  0  0  0  0
   -3.4213    0.2379   -0.2859 H   0  0  0  0  0  0  0  0  0  0  0  0
   -2.5765    0.1548    1.2714 H   0  0  0  0  0  0  0  0  0  0  0  0
   -2.5842   -1.2500    0.1949 H   0  0  0  0  0  0  0  0  0  0  0  0
   -1.2533    1.4448   -0.4136 H   0  0  0  0  0  0  0  0  0  0  0  0
   -1.2611    0.0323   -1.4960 H   0  0  0  0  0  0  0  0  0  0  0  0
    1.3109   -0.0149   -1.4528 H   0  0  0  0  0  0  0  0  0  0  0  0
    1.3186    1.3976   -0.3704 H   0  0  0  0  0  0  0  0  0  0  0  0
    2.5286   -1.3438    0.2806 H   0  0  0  0  0  0  0  0  0  0  0  0
    2.5364    0.0610    1.3571 H   0  0  0  0  0  0  0  0  0  0  0  0
    3.4354    0.1120   -0.1708 H   0  0  0  0  0  0  0  0  0  0  0  0
  1  2  1  0
  2  3  1  0
  3  4  2  0
  3  5  1  0
  5  6  1  0
  1  7  1  0
  1  8  1  0
  1  9  1  0
  2 10  1  0
  2 11  1  0
  5 12  1  0
  5 13  1  0
  6 14  1  0
  6 15  1  0
  6 16  1  0
M  END
$$$$
