
     RDKit          3D

 29 28  0  0  0  0  0  0  0  0999 V2000
   -4.1489   -1.2646   -0.8310 C   0  0  0  0  0  0  0  0  0  0  0  0
   -2.9234   -0.7978   -0.0891 C   0  0  0  0  0  0  0  0  0  0  0  0
   -1.6947   -1.1932   -0.4756 C   0  0  0  0  0  0  0  0  0  0  0  0
   -0.3758   -0.8535    0.1659 C   0  0  0  0  0  0  0  0  0  0  0  0
    0.3748    0.2184   -0.6327 C   0  0  0  0  0  0  0  0  0  0  0  0
    1.7420    0.5347   -0.0496 C   0  0  0  0  0  0  0  0  0  0  0  0
    2.8605    0.1585   -0.7024 C   0  0  0  0  0  0  0  0  0  0  0  0
    4.2848    0.3578   -0.2959 C   0  0  0  0  0  0  0  0  0  0  0  0
    4.8915    1.2405   -1.2257 O   0  0  0  0  0  0  0  0  0  0  0  0
    1.7229    1.3048    1.2440 C   0  0  0  0  0  0  0  0  0  0  0  0
   -3.2123    0.1232    1.0641 C   0  0  0  0  0  0  0  0  0  0  0  0
   -4.8193   -1.8029   -0.1530 H   0  0  0  0  0  0  0  0  0  0  0  0
   -3.9028   -1.9381   -1.6587 H   0  0  0  0  0  0  0  0  0  0  0  0
   -4.6890   -0.4085   -1.2485 H   0  0  0  0  0  0  0  0  0  0  0  0
   -1.6094   -1.8505   -1.3412 H   0  0  0  0  0  0  0  0  0  0  0  0
   -0.5098   -0.5396    1.2056 H   0  0  0  0  0  0  0  0  0  0  0  0
    0.2246   -1.7715    0.2100 H   0  0  0  0  0  0  0  0  0  0  0  0
    0.4754   -0.1129   -1.6752 H   0  0  0  0  0  0  0  0  0  0  0  0
   -0.2169    1.1425   -0.6720 H   0  0  0  0  0  0  0  0  0  0  0  0
    2.7564   -0.3797   -1.6447 H   0  0  0  0  0  0  0  0  0  0  0  0
    4.8175   -0.5975   -0.3304 H   0  0  0  0  0  0  0  0  0  0  0  0
    4.4086    0.7675    0.7083 H   0  0  0  0  0  0  0  0  0  0  0  0
    4.3208    2.0267   -1.2735 H   0  0  0  0  0  0  0  0  0  0  0  0
    1.0324    2.1518    1.1696 H   0  0  0  0  0  0  0  0  0  0  0  0
    2.6970    1.7202    1.5119 H   0  0  0  0  0  0  0  0  0  0  0  0
    1.3937    0.6623    2.0663 H   0  0  0  0  0  0  0  0  0  0  0  0
   -3.7482   -0.4164    1.8516 H   0  0  0  0  0  0  0  0  0  0  0  0
   -3.8387    0.9577    0.7307 H   0  0  0  0  0  0  0  0  0  0  0  0
   -2.3138    0.5601    1.5058 H   0  0  0  0  0  0  0  0  0  0  0  0
  1  2  1  0
  2  3  2  3
  3  4  1  0
  4  5  1  0
  5  6  1  0
  6  7  2  0
  7  8  1  0
  8  9  1  0
  6 10  1  0
  2 11  1  0
  1 12  1  0
  1 13  1  0
  1 14  1  0
  3 15  1  0
  4 16  1  0
  4 17  1  0
  5 18  1  0
  5 19  1  0
  7 20  1  0
  8 21  1  0
  8 22  1  0
  9 23  1  0
 10 24  1  0
 10 25  1  0
 10 26  1  0
 11 27  1  0
 11 28  1  0
 11 29  1  0
M  END
$$$$
