
     RDKit          3D

  5  4  0  0  0  0  0  0  0  0999 V2000
   -0.1007   -0.0768    0.0081 C   0  0  0  0  0  0  0  0  0  0  0  0
   -0.8298    1.0551   -0.1591 F   0  0  0  0  0  0  0  0  0  0  0  0
    1.6199    0.3150   -0.0077 Cl  0  0  0  0  0  0  0  0  0  0  0  0
   -0.3258   -0.7658   -0.8092 H   0  0  0  0  0  0  0  0  0  0  0  0
   -0.3636   -0.5276    0.9679 H   0  0  0  0  0  0  0  0  0  0  0  0
  1  2  1  0
  1  3  1  0
  1  4  1  0
  1  5  1  0
M  END
$$$$
