
     RDKit          3D

 22 24  0  0  0  0  0  0  0  0999 V2000
   -1.7131    2.1513    0.1887 C   0  0  0  0  0  0  0  0  0  0  0  0
   -2.2690    0.8569    0.1417 C   0  0  0  0  0  0  0  0  0  0  0  0
   -1.4293   -0.2682    0.0454 C   0  0  0  0  0  0  0  0  0  0  0  0
   -1.8086   -1.6222   -0.0122 C   0  0  0  0  0  0  0  0  0  0  0  0
   -0.8256   -2.6277   -0.1081 C   0  0  0  0  0  0  0  0  0  0  0  0
    0.5414   -2.3060   -0.1479 C   0  0  0  0  0  0  0  0  0  0  0  0
    0.9130   -0.9732   -0.0911 C   0  0  0  0  0  0  0  0  0  0  0  0
   -0.0583   -0.0109    0.0019 C   0  0  0  0  0  0  0  0  0  0  0  0
    0.5022    1.2388    0.0462 C   0  0  0  0  0  0  0  0  0  0  0  0
   -0.3227    2.3470    0.1410 C   0  0  0  0  0  0  0  0  0  0  0  0
    1.9989    1.1637   -0.0207 C   0  0  0  0  0  0  0  0  0  0  0  0
    2.2819   -0.3603   -0.1153 C   0  0  0  0  0  0  0  0  0  0  0  0
   -2.3729    3.0128    0.2631 H   0  0  0  0  0  0  0  0  0  0  0  0
   -3.3477    0.7338    0.1803 H   0  0  0  0  0  0  0  0  0  0  0  0
   -2.8589   -1.8986    0.0168 H   0  0  0  0  0  0  0  0  0  0  0  0
   -1.1317   -3.6706   -0.1518 H   0  0  0  0  0  0  0  0  0  0  0  0
    1.2875   -3.0910   -0.2219 H   0  0  0  0  0  0  0  0  0  0  0  0
    0.0914    3.3498    0.1781 H   0  0  0  0  0  0  0  0  0  0  0  0
    2.4555    1.5887    0.8791 H   0  0  0  0  0  0  0  0  0  0  0  0
    2.3807    1.6855   -0.9042 H   0  0  0  0  0  0  0  0  0  0  0  0
    2.8802   -0.6982    0.7371 H   0  0  0  0  0  0  0  0  0  0  0  0
    2.8053   -0.6013   -1.0462 H   0  0  0  0  0  0  0  0  0  0  0  0
  1  2  2  0
  2  3  1  0
  3  4  2  0
  4  5  1  0
  5  6  2  0
  6  7  1  0
  7  8  2  0
  8  9  1  0
  9 10  2  0
  9 11  1  0
 11 12  1  0
 10  1  1  0
  8  3  1  0
 12  7  1  0
  1 13  1  0
  2 14  1  0
  4 15  1  0
  5 16  1  0
  6 17  1  0
 10 18  1  0
 11 19  1  0
 11 20  1  0
 12 21  1  0
 12 22  1  0
M  END
$$$$
