
     RDKit          3D

 12 12  0  0  0  0  0  0  0  0999 V2000
   -1.3978    0.0397    0.0233 C   0  0  0  0  0  0  0  0  0  0  0  0
   -0.7279   -1.1822    0.0120 C   0  0  0  0  0  0  0  0  0  0  0  0
    0.6645   -1.2305   -0.0112 C   0  0  0  0  0  0  0  0  0  0  0  0
    1.3877   -0.0394   -0.0232 C   0  0  0  0  0  0  0  0  0  0  0  0
    0.7332    1.1908   -0.0121 C   0  0  0  0  0  0  0  0  0  0  0  0
   -0.6597    1.2216    0.0111 C   0  0  0  0  0  0  0  0  0  0  0  0
   -1.4773    2.7356    0.0250 Cl  0  0  0  0  0  0  0  0  0  0  0  0
    3.1074   -0.0882   -0.0519 Cl  0  0  0  0  0  0  0  0  0  0  0  0
   -1.6301   -2.6474    0.0269 Cl  0  0  0  0  0  0  0  0  0  0  0  0
   -2.4839    0.0705    0.0415 H   0  0  0  0  0  0  0  0  0  0  0  0
    1.1809   -2.1867   -0.0199 H   0  0  0  0  0  0  0  0  0  0  0  0
    1.3030    2.1162   -0.0215 H   0  0  0  0  0  0  0  0  0  0  0  0
  1  2  2  0
  2  3  1  0
  3  4  2  0
  4  5  1  0
  5  6  2  0
  6  7  1  0
  4  8  1  0
  2  9  1  0
  6  1  1  0
  1 10  1  0
  3 11  1  0
  5 12  1  0
M  END
$$$$
