
     RDKit          3D

 29 28  0  0  0  0  0  0  0  0999 V2000
    3.1400    0.9444   -0.6665 C   0  0  0  0  0  0  0  0  0  0  0  0
    2.1568    0.5111    0.4243 C   0  0  0  0  0  0  0  0  0  0  0  0
    2.7052   -0.7169    1.1526 C   0  0  0  0  0  0  0  0  0  0  0  0
    0.7670    0.2597   -0.1958 C   0  0  0  0  0  0  0  0  0  0  0  0
   -0.3185   -0.0364    0.8498 C   0  0  0  0  0  0  0  0  0  0  0  0
   -1.7667   -0.1588    0.3011 C   0  0  0  0  0  0  0  0  0  0  0  0
   -2.2421    1.1647   -0.3213 C   0  0  0  0  0  0  0  0  0  0  0  0
   -1.8723   -1.2786   -0.7470 C   0  0  0  0  0  0  0  0  0  0  0  0
   -2.6982   -0.5027    1.4805 C   0  0  0  0  0  0  0  0  0  0  0  0
    4.1237    1.1654   -0.2388 H   0  0  0  0  0  0  0  0  0  0  0  0
    3.2667    0.1610   -1.4215 H   0  0  0  0  0  0  0  0  0  0  0  0
    2.7870    1.8494   -1.1721 H   0  0  0  0  0  0  0  0  0  0  0  0
    2.0761    1.3323    1.1478 H   0  0  0  0  0  0  0  0  0  0  0  0
    3.7220   -0.5311    1.5154 H   0  0  0  0  0  0  0  0  0  0  0  0
    2.7369   -1.5894    0.4915 H   0  0  0  0  0  0  0  0  0  0  0  0
    2.0940   -0.9701    2.0240 H   0  0  0  0  0  0  0  0  0  0  0  0
    0.8357   -0.5722   -0.9065 H   0  0  0  0  0  0  0  0  0  0  0  0
    0.4851    1.1483   -0.7711 H   0  0  0  0  0  0  0  0  0  0  0  0
   -0.2937    0.7524    1.6135 H   0  0  0  0  0  0  0  0  0  0  0  0
   -0.0668   -0.9718    1.3649 H   0  0  0  0  0  0  0  0  0  0  0  0
   -3.3006    1.1098   -0.6012 H   0  0  0  0  0  0  0  0  0  0  0  0
   -2.1281    1.9960    0.3832 H   0  0  0  0  0  0  0  0  0  0  0  0
   -1.6832    1.4126   -1.2293 H   0  0  0  0  0  0  0  0  0  0  0  0
   -1.4985   -2.2285   -0.3489 H   0  0  0  0  0  0  0  0  0  0  0  0
   -1.3009   -1.0432   -1.6508 H   0  0  0  0  0  0  0  0  0  0  0  0
   -2.9130   -1.4337   -1.0542 H   0  0  0  0  0  0  0  0  0  0  0  0
   -2.6648    0.2759    2.2510 H   0  0  0  0  0  0  0  0  0  0  0  0
   -2.4099   -1.4502    1.9497 H   0  0  0  0  0  0  0  0  0  0  0  0
   -3.7389   -0.5993    1.1508 H   0  0  0  0  0  0  0  0  0  0  0  0
  1  2  1  0
  2  3  1  0
  2  4  1  0
  4  5  1  0
  5  6  1  0
  6  7  1  0
  6  8  1  0
  6  9  1  0
  1 10  1  0
  1 11  1  0
  1 12  1  0
  2 13  1  0
  3 14  1  0
  3 15  1  0
  3 16  1  0
  4 17  1  0
  4 18  1  0
  5 19  1  0
  5 20  1  0
  7 21  1  0
  7 22  1  0
  7 23  1  0
  8 24  1  0
  8 25  1  0
  8 26  1  0
  9 27  1  0
  9 28  1  0
  9 29  1  0
M  END
$$$$
