
     RDKit          3D

 19 19  0  0  0  0  0  0  0  0999 V2000
    2.7860   -0.5623   -0.0203 C   0  0  0  0  0  0  0  0  0  0  0  0
    1.3765   -0.0526    0.0429 C   0  0  0  0  0  0  0  0  0  0  0  0
    1.1231    1.3168    0.1803 C   0  0  0  0  0  0  0  0  0  0  0  0
   -0.1883    1.7937    0.2070 C   0  0  0  0  0  0  0  0  0  0  0  0
   -1.2505    0.9000    0.0855 C   0  0  0  0  0  0  0  0  0  0  0  0
   -1.0258   -0.4708   -0.0667 C   0  0  0  0  0  0  0  0  0  0  0  0
    0.2968   -0.9370   -0.0929 C   0  0  0  0  0  0  0  0  0  0  0  0
   -2.1727   -1.4287   -0.2068 C   0  0  0  0  0  0  0  0  0  0  0  0
   -2.5393    1.3547    0.1090 O   0  0  0  0  0  0  0  0  0  0  0  0
    3.1307   -0.5813   -1.0587 H   0  0  0  0  0  0  0  0  0  0  0  0
    2.8543   -1.5734    0.3948 H   0  0  0  0  0  0  0  0  0  0  0  0
    3.4587    0.0742    0.5642 H   0  0  0  0  0  0  0  0  0  0  0  0
    1.9475    2.0207    0.2681 H   0  0  0  0  0  0  0  0  0  0  0  0
   -0.3599    2.8594    0.3194 H   0  0  0  0  0  0  0  0  0  0  0  0
    0.4891   -2.0008   -0.2194 H   0  0  0  0  0  0  0  0  0  0  0  0
   -2.8218   -1.3752    0.6732 H   0  0  0  0  0  0  0  0  0  0  0  0
   -1.8237   -2.4627   -0.2986 H   0  0  0  0  0  0  0  0  0  0  0  0
   -2.7558   -1.1932   -1.1030 H   0  0  0  0  0  0  0  0  0  0  0  0
   -2.5248    2.3186    0.2220 H   0  0  0  0  0  0  0  0  0  0  0  0
  1  2  1  0
  2  3  2  0
  3  4  1  0
  4  5  2  0
  5  6  1  0
  6  7  2  0
  6  8  1  0
  5  9  1  0
  7  2  1  0
  1 10  1  0
  1 11  1  0
  1 12  1  0
  3 13  1  0
  4 14  1  0
  7 15  1  0
  8 16  1  0
  8 17  1  0
  8 18  1  0
  9 19  1  0
M  END
$$$$
