
     RDKit          3D

 21 20  0  0  0  0  0  0  0  0999 V2000
   -3.4759   -0.0333   -0.4445 C   0  0  0  0  0  0  0  0  0  0  0  0
   -2.2969    0.4709    0.3724 C   0  0  0  0  0  0  0  0  0  0  0  0
   -0.9914   -0.2007   -0.0543 C   0  0  0  0  0  0  0  0  0  0  0  0
    0.1911    0.3099    0.7713 C   0  0  0  0  0  0  0  0  0  0  0  0
    1.4720   -0.3597    0.3609 C   0  0  0  0  0  0  0  0  0  0  0  0
    2.5270    0.2923   -0.1518 C   0  0  0  0  0  0  0  0  0  0  0  0
    3.8032   -0.3717   -0.5549 C   0  0  0  0  0  0  0  0  0  0  0  0
   -3.3328    0.1750   -1.5096 H   0  0  0  0  0  0  0  0  0  0  0  0
   -4.3985    0.4600   -0.1229 H   0  0  0  0  0  0  0  0  0  0  0  0
   -3.6067   -1.1129   -0.3197 H   0  0  0  0  0  0  0  0  0  0  0  0
   -2.4860    0.2762    1.4345 H   0  0  0  0  0  0  0  0  0  0  0  0
   -2.2140    1.5572    0.2511 H   0  0  0  0  0  0  0  0  0  0  0  0
   -1.0845   -1.2881    0.0619 H   0  0  0  0  0  0  0  0  0  0  0  0
   -0.8108   -0.0070   -1.1193 H   0  0  0  0  0  0  0  0  0  0  0  0
    0.0185    0.1051    1.8347 H   0  0  0  0  0  0  0  0  0  0  0  0
    0.2716    1.3988    0.6663 H   0  0  0  0  0  0  0  0  0  0  0  0
    1.5236   -1.4369    0.5077 H   0  0  0  0  0  0  0  0  0  0  0  0
    2.4800    1.3696   -0.2957 H   0  0  0  0  0  0  0  0  0  0  0  0
    3.9934   -0.1983   -1.6184 H   0  0  0  0  0  0  0  0  0  0  0  0
    4.6373    0.0465    0.0168 H   0  0  0  0  0  0  0  0  0  0  0  0
    3.7799   -1.4526   -0.3839 H   0  0  0  0  0  0  0  0  0  0  0  0
  1  2  1  0
  2  3  1  0
  3  4  1  0
  4  5  1  0
  5  6  2  0
  6  7  1  0
  1  8  1  0
  1  9  1  0
  1 10  1  0
  2 11  1  0
  2 12  1  0
  3 13  1  0
  3 14  1  0
  4 15  1  0
  4 16  1  0
  5 17  1  0
  6 18  1  0
  7 19  1  0
  7 20  1  0
  7 21  1  0
M  END
$$$$
