
     RDKit          3D

 14 13  0  0  0  0  0  0  0  0999 V2000
    1.4137    0.3423   -0.0402 C   0  0  0  0  0  0  0  0  0  0  0  0
   -0.0118   -0.0322    0.3694 C   0  0  0  0  0  0  0  0  0  0  0  0
   -0.9936    1.0618   -0.0541 C   0  0  0  0  0  0  0  0  0  0  0  0
   -0.4092   -1.3742   -0.2481 C   0  0  0  0  0  0  0  0  0  0  0  0
   -0.0688   -0.1884    2.1592 Cl  0  0  0  0  0  0  0  0  0  0  0  0
    1.7222    1.2940    0.4077 H   0  0  0  0  0  0  0  0  0  0  0  0
    1.4939    0.4482   -1.1280 H   0  0  0  0  0  0  0  0  0  0  0  0
    2.1340   -0.4230    0.2710 H   0  0  0  0  0  0  0  0  0  0  0  0
   -0.9910    1.1908   -1.1424 H   0  0  0  0  0  0  0  0  0  0  0  0
   -2.0189    0.8181    0.2469 H   0  0  0  0  0  0  0  0  0  0  0  0
   -0.7340    2.0280    0.3934 H   0  0  0  0  0  0  0  0  0  0  0  0
   -1.4227   -1.6673    0.0490 H   0  0  0  0  0  0  0  0  0  0  0  0
   -0.3878   -1.3237   -1.3426 H   0  0  0  0  0  0  0  0  0  0  0  0
    0.2740   -2.1744    0.0588 H   0  0  0  0  0  0  0  0  0  0  0  0
  1  2  1  0
  2  3  1  0
  2  4  1  0
  2  5  1  0
  1  6  1  0
  1  7  1  0
  1  8  1  0
  3  9  1  0
  3 10  1  0
  3 11  1  0
  4 12  1  0
  4 13  1  0
  4 14  1  0
M  END
$$$$
