
     RDKit          3D

 13 12  0  0  0  0  0  0  0  0999 V2000
   -1.7839   -0.1294    0.1709 C   0  0  0  0  0  0  0  0  0  0  0  0
   -0.4155    0.4819   -0.0815 C   0  0  0  0  0  0  0  0  0  0  0  0
    0.7042   -0.4488    0.3694 C   0  0  0  0  0  0  0  0  0  0  0  0
    2.0758    0.1347    0.1298 C   0  0  0  0  0  0  0  0  0  0  0  0
    2.2907    1.2335   -0.3705 O   0  0  0  0  0  0  0  0  0  0  0  0
   -2.5716    0.5547   -0.1598 H   0  0  0  0  0  0  0  0  0  0  0  0
   -1.9334   -0.3299    1.2367 H   0  0  0  0  0  0  0  0  0  0  0  0
   -1.8999   -1.0707   -0.3758 H   0  0  0  0  0  0  0  0  0  0  0  0
   -0.3098    0.7043   -1.1501 H   0  0  0  0  0  0  0  0  0  0  0  0
   -0.3431    1.4389    0.4489 H   0  0  0  0  0  0  0  0  0  0  0  0
    0.6522   -1.4001   -0.1710 H   0  0  0  0  0  0  0  0  0  0  0  0
    0.6187   -0.6596    1.4408 H   0  0  0  0  0  0  0  0  0  0  0  0
    2.9156   -0.5094    0.4432 H   0  0  0  0  0  0  0  0  0  0  0  0
  1  2  1  0
  2  3  1  0
  3  4  1  0
  4  5  2  0
  1  6  1  0
  1  7  1  0
  1  8  1  0
  2  9  1  0
  2 10  1  0
  3 11  1  0
  3 12  1  0
  4 13  1  0
M  END
$$$$
