
     RDKit          3D

 26 25  0  0  0  0  0  0  0  0999 V2000
    4.6239    0.4435   -0.0250 C   0  0  0  0  0  0  0  0  0  0  0  0
    3.3806   -0.4175   -0.1813 C   0  0  0  0  0  0  0  0  0  0  0  0
    2.1085    0.3768    0.1139 C   0  0  0  0  0  0  0  0  0  0  0  0
    0.8603   -0.4928   -0.0444 C   0  0  0  0  0  0  0  0  0  0  0  0
   -0.4107    0.3007    0.2505 C   0  0  0  0  0  0  0  0  0  0  0  0
   -1.6603   -0.5591    0.0949 C   0  0  0  0  0  0  0  0  0  0  0  0
   -2.8013    0.2584    0.3883 O   0  0  0  0  0  0  0  0  0  0  0  0
   -3.9930   -0.3911    0.2862 C   0  0  0  0  0  0  0  0  0  0  0  0
   -4.1389   -1.5649   -0.0236 O   0  0  0  0  0  0  0  0  0  0  0  0
   -5.1160    0.5456    0.6108 C   0  0  0  0  0  0  0  0  0  0  0  0
    4.7079    0.8297    0.9958 H   0  0  0  0  0  0  0  0  0  0  0  0
    5.5216   -0.1443   -0.2408 H   0  0  0  0  0  0  0  0  0  0  0  0
    4.6011    1.2941   -0.7137 H   0  0  0  0  0  0  0  0  0  0  0  0
    3.3438   -0.8137   -1.2028 H   0  0  0  0  0  0  0  0  0  0  0  0
    3.4499   -1.2756    0.4973 H   0  0  0  0  0  0  0  0  0  0  0  0
    2.0462    1.2362   -0.5648 H   0  0  0  0  0  0  0  0  0  0  0  0
    2.1524    0.7743    1.1352 H   0  0  0  0  0  0  0  0  0  0  0  0
    0.8165   -0.8901   -1.0658 H   0  0  0  0  0  0  0  0  0  0  0  0
    0.9227   -1.3520    0.6344 H   0  0  0  0  0  0  0  0  0  0  0  0
   -0.3760    0.7093    1.2682 H   0  0  0  0  0  0  0  0  0  0  0  0
   -0.4813    1.1676   -0.4185 H   0  0  0  0  0  0  0  0  0  0  0  0
   -1.7340   -0.9344   -0.9325 H   0  0  0  0  0  0  0  0  0  0  0  0
   -1.6263   -1.4033    0.7936 H   0  0  0  0  0  0  0  0  0  0  0  0
   -5.0109    0.9092    1.6361 H   0  0  0  0  0  0  0  0  0  0  0  0
   -6.0678    0.0135    0.5257 H   0  0  0  0  0  0  0  0  0  0  0  0
   -5.1190    1.3796   -0.0954 H   0  0  0  0  0  0  0  0  0  0  0  0
  1  2  1  0
  2  3  1  0
  3  4  1  0
  4  5  1  0
  5  6  1  0
  6  7  1  0
  7  8  1  0
  8  9  2  0
  8 10  1  0
  1 11  1  0
  1 12  1  0
  1 13  1  0
  2 14  1  0
  2 15  1  0
  3 16  1  0
  3 17  1  0
  4 18  1  0
  4 19  1  0
  5 20  1  0
  5 21  1  0
  6 22  1  0
  6 23  1  0
 10 24  1  0
 10 25  1  0
 10 26  1  0
M  END
$$$$
