
     RDKit          3D

 15 14  0  0  0  0  0  0  0  0999 V2000
    2.0138   -0.1054    0.2827 C   0  0  0  0  0  0  0  0  0  0  0  0
    0.5998   -0.6590    0.4009 C   0  0  0  0  0  0  0  0  0  0  0  0
   -0.4648    0.4201    0.1915 C   0  0  2  0  0  0  0  0  0  0  0  0
   -1.8662   -0.1433    0.3850 C   0  0  0  0  0  0  0  0  0  0  0  0
   -0.3544    0.9346   -1.1326 O   0  0  0  0  0  0  0  0  0  0  0  0
    2.1855    0.6890    1.0160 H   0  0  0  0  0  0  0  0  0  0  0  0
    2.7455   -0.8989    0.4649 H   0  0  0  0  0  0  0  0  0  0  0  0
    2.2010    0.3012   -0.7161 H   0  0  0  0  0  0  0  0  0  0  0  0
    0.4795   -1.4517   -0.3476 H   0  0  0  0  0  0  0  0  0  0  0  0
    0.4783   -1.1156    1.3900 H   0  0  0  0  0  0  0  0  0  0  0  0
   -0.3007    1.2475    0.8911 H   0  0  0  0  0  0  0  0  0  0  0  0
   -2.6183    0.6365    0.2238 H   0  0  0  0  0  0  0  0  0  0  0  0
   -2.0743   -0.9355   -0.3426 H   0  0  0  0  0  0  0  0  0  0  0  0
   -1.9968   -0.5482    1.3932 H   0  0  0  0  0  0  0  0  0  0  0  0
   -1.0277    1.6287   -1.2349 H   0  0  0  0  0  0  0  0  0  0  0  0
  1  2  1  0
  2  3  1  0
  3  4  1  0
  3  5  1  0
  1  6  1  0
  1  7  1  0
  1  8  1  0
  2  9  1  0
  2 10  1  0
  3 11  1  1
  4 12  1  0
  4 13  1  0
  4 14  1  0
  5 15  1  0
M  END
$$$$
