
     RDKit          3D

  7  6  0  0  0  0  0  0  0  0999 V2000
   -0.5925   -0.0813    0.0014 C   0  0  0  0  0  0  0  0  0  0  0  0
    0.9302    0.1450   -0.0037 N   0  0  0  0  0  4  0  0  0  0  0  0
    1.3718    1.3039   -0.0935 O   0  0  0  0  0  0  0  0  0  0  0  0
    1.6644   -0.8573    0.0840 O   0  0  0  0  0  1  0  0  0  0  0  0
   -0.9540   -1.1122   -1.3947 Cl  0  0  0  0  0  0  0  0  0  0  0  0
   -1.4400    1.4715   -0.1346 Cl  0  0  0  0  0  0  0  0  0  0  0  0
   -0.9799   -0.8695    1.5412 Cl  0  0  0  0  0  0  0  0  0  0  0  0
  1  2  1  0
  2  3  2  0
  2  4  1  0
  1  5  1  0
  1  6  1  0
  1  7  1  0
M  CHG  2   2   1   4  -1
M  END
$$$$
