
     RDKit          3D

  5  4  0  0  0  0  0  0  0  0999 V2000
   -0.0604    0.0048   -0.0048 C   0  0  0  0  0  0  0  0  0  0  0  0
    1.2877   -0.1032    0.1027 F   0  0  0  0  0  0  0  0  0  0  0  0
   -0.2966    0.9189   -0.5533 H   0  0  0  0  0  0  0  0  0  0  0  0
   -0.4405   -0.8661   -0.5426 H   0  0  0  0  0  0  0  0  0  0  0  0
   -0.4903    0.0455    0.9980 H   0  0  0  0  0  0  0  0  0  0  0  0
  1  2  1  0
  1  3  1  0
  1  4  1  0
  1  5  1  0
M  END
$$$$
