
     RDKit          3D

 16 16  0  0  0  0  0  0  0  0999 V2000
   -2.2141   -0.0142    0.1767 C   0  0  0  0  0  0  0  0  0  0  0  0
   -0.7217   -0.1410    0.0833 C   0  0  0  0  0  0  0  0  0  0  0  0
   -0.1011   -1.3837    0.2687 C   0  0  0  0  0  0  0  0  0  0  0  0
    1.2876   -1.5032    0.1821 C   0  0  0  0  0  0  0  0  0  0  0  0
    2.0699   -0.3823   -0.0907 C   0  0  0  0  0  0  0  0  0  0  0  0
    1.4657    0.8607   -0.2775 C   0  0  0  0  0  0  0  0  0  0  0  0
    0.0783    0.9733   -0.1896 C   0  0  0  0  0  0  0  0  0  0  0  0
   -0.5266    2.1857   -0.3706 O   0  0  0  0  0  0  0  0  0  0  0  0
   -2.6859   -0.9780    0.3955 H   0  0  0  0  0  0  0  0  0  0  0  0
   -2.6241    0.3488   -0.7713 H   0  0  0  0  0  0  0  0  0  0  0  0
   -2.4865    0.6788    0.9793 H   0  0  0  0  0  0  0  0  0  0  0  0
   -0.6966   -2.2684    0.4823 H   0  0  0  0  0  0  0  0  0  0  0  0
    1.7580   -2.4723    0.3278 H   0  0  0  0  0  0  0  0  0  0  0  0
    3.1504   -0.4781   -0.1575 H   0  0  0  0  0  0  0  0  0  0  0  0
    2.0880    1.7243   -0.4891 H   0  0  0  0  0  0  0  0  0  0  0  0
    0.1586    2.8495   -0.5495 H   0  0  0  0  0  0  0  0  0  0  0  0
  1  2  1  0
  2  3  2  0
  3  4  1  0
  4  5  2  0
  5  6  1  0
  6  7  2  0
  7  8  1  0
  7  2  1  0
  1  9  1  0
  1 10  1  0
  1 11  1  0
  3 12  1  0
  4 13  1  0
  5 14  1  0
  6 15  1  0
  8 16  1  0
M  END
$$$$
