
     RDKit          3D

 26 28  0  0  0  0  0  0  0  0999 V2000
    3.9027   -0.1720   -0.9096 C   0  0  0  0  0  0  0  0  0  0  0  0
    3.5804   -1.4899   -0.5893 C   0  0  0  0  0  0  0  0  0  0  0  0
    2.2826   -1.8138   -0.1895 C   0  0  0  0  0  0  0  0  0  0  0  0
    1.3006   -0.8166   -0.1123 C   0  0  0  0  0  0  0  0  0  0  0  0
    1.6240    0.4987   -0.4317 C   0  0  0  0  0  0  0  0  0  0  0  0
    2.9276    0.8234   -0.8305 C   0  0  0  0  0  0  0  0  0  0  0  0
    0.6014    1.5561   -0.3466 C   0  0  0  0  0  0  0  0  0  0  0  0
    0.9007    2.7232   -0.5722 O   0  0  0  0  0  0  0  0  0  0  0  0
   -0.7869    1.1928    0.0034 C   0  0  0  0  0  0  0  0  0  0  0  0
   -1.7623    2.1986    0.0158 C   0  0  0  0  0  0  0  0  0  0  0  0
   -3.0850    1.8811    0.3080 C   0  0  0  0  0  0  0  0  0  0  0  0
   -3.4346    0.5610    0.5904 C   0  0  0  0  0  0  0  0  0  0  0  0
   -2.4668   -0.4534    0.6257 C   0  0  0  0  0  0  0  0  0  0  0  0
   -1.1302   -0.1300    0.3023 C   0  0  0  0  0  0  0  0  0  0  0  0
   -0.0659   -1.1675    0.3225 C   0  0  0  0  0  0  0  0  0  0  0  0
   -0.2952   -2.3068    0.7195 O   0  0  0  0  0  0  0  0  0  0  0  0
   -2.9097   -1.7810    0.7655 N   0  0  0  0  0  0  0  0  0  0  0  0
    4.9140    0.0820   -1.2199 H   0  0  0  0  0  0  0  0  0  0  0  0
    4.3399   -2.2665   -0.6489 H   0  0  0  0  0  0  0  0  0  0  0  0
    2.0407   -2.8452    0.0616 H   0  0  0  0  0  0  0  0  0  0  0  0
    3.1868    1.8510   -1.0801 H   0  0  0  0  0  0  0  0  0  0  0  0
   -1.4965    3.2286   -0.2170 H   0  0  0  0  0  0  0  0  0  0  0  0
   -3.8478    2.6561    0.2955 H   0  0  0  0  0  0  0  0  0  0  0  0
   -4.4801    0.3209    0.7728 H   0  0  0  0  0  0  0  0  0  0  0  0
   -2.1378   -2.4250    0.9798 H   0  0  0  0  0  0  0  0  0  0  0  0
   -3.7027   -1.9057    1.3848 H   0  0  0  0  0  0  0  0  0  0  0  0
  1  2  2  0
  2  3  1  0
  3  4  2  0
  4  5  1  0
  5  6  2  0
  5  7  1  0
  7  8  2  0
  7  9  1  0
  9 10  2  0
 10 11  1  0
 11 12  2  0
 12 13  1  0
 13 14  2  0
 14 15  1  0
 15 16  2  0
 13 17  1  0
  6  1  1  0
 15  4  1  0
 14  9  1  0
  1 18  1  0
  2 19  1  0
  3 20  1  0
  6 21  1  0
 10 22  1  0
 11 23  1  0
 12 24  1  0
 17 25  1  0
 17 26  1  0
M  END
$$$$
