
     RDKit          3D

 23 22  0  0  0  0  0  0  0  0999 V2000
    3.7757    0.2309    0.2516 C   0  0  0  0  0  0  0  0  0  0  0  0
    2.4589    0.7425   -0.3102 C   0  0  0  0  0  0  0  0  0  0  0  0
    1.2796   -0.1049    0.1666 C   0  0  0  0  0  0  0  0  0  0  0  0
   -0.0431    0.4131   -0.4008 C   0  0  0  0  0  0  0  0  0  0  0  0
   -1.2233   -0.4348    0.0762 C   0  0  0  0  0  0  0  0  0  0  0  0
   -2.5450    0.0829   -0.4908 C   0  0  0  0  0  0  0  0  0  0  0  0
   -3.7209   -0.7574   -0.0189 C   0  0  0  0  0  0  0  0  0  0  0  0
    4.6053    0.8512   -0.1020 H   0  0  0  0  0  0  0  0  0  0  0  0
    3.7728    0.2592    1.3459 H   0  0  0  0  0  0  0  0  0  0  0  0
    3.9633   -0.8000   -0.0652 H   0  0  0  0  0  0  0  0  0  0  0  0
    2.5068    0.7316   -1.4054 H   0  0  0  0  0  0  0  0  0  0  0  0
    2.3173    1.7849   -0.0020 H   0  0  0  0  0  0  0  0  0  0  0  0
    1.2387   -0.0939    1.2626 H   0  0  0  0  0  0  0  0  0  0  0  0
    1.4282   -1.1473   -0.1407 H   0  0  0  0  0  0  0  0  0  0  0  0
   -0.1916    1.4554   -0.0933 H   0  0  0  0  0  0  0  0  0  0  0  0
   -0.0020    0.4020   -1.4968 H   0  0  0  0  0  0  0  0  0  0  0  0
   -1.0749   -1.4772   -0.2311 H   0  0  0  0  0  0  0  0  0  0  0  0
   -1.2644   -0.4239    1.1723 H   0  0  0  0  0  0  0  0  0  0  0  0
   -2.5107    0.0701   -1.5864 H   0  0  0  0  0  0  0  0  0  0  0  0
   -2.7002    1.1235   -0.1830 H   0  0  0  0  0  0  0  0  0  0  0  0
   -3.6123   -1.7987   -0.3386 H   0  0  0  0  0  0  0  0  0  0  0  0
   -4.6555   -0.3696   -0.4361 H   0  0  0  0  0  0  0  0  0  0  0  0
   -3.8029   -0.7395    1.0726 H   0  0  0  0  0  0  0  0  0  0  0  0
  1  2  1  0
  2  3  1  0
  3  4  1  0
  4  5  1  0
  5  6  1  0
  6  7  1  0
  1  8  1  0
  1  9  1  0
  1 10  1  0
  2 11  1  0
  2 12  1  0
  3 13  1  0
  3 14  1  0
  4 15  1  0
  4 16  1  0
  5 17  1  0
  5 18  1  0
  6 19  1  0
  6 20  1  0
  7 21  1  0
  7 22  1  0
  7 23  1  0
M  END
$$$$
