
     RDKit          3D

 22 22  0  0  0  0  0  0  0  0999 V2000
    3.9869   -0.6133   -0.0430 C   0  0  0  0  0  0  0  0  0  0  0  0
    2.8180    0.3128   -0.3289 C   0  0  0  0  0  0  0  0  0  0  0  0
    1.4716   -0.3514   -0.0834 C   0  0  0  0  0  0  0  0  0  0  0  0
    1.3736   -1.5096    0.3030 O   0  0  0  0  0  0  0  0  0  0  0  0
    0.4242    0.5175   -0.3525 N   0  0  0  0  0  0  0  0  0  0  0  0
   -0.9577    0.2578   -0.2407 C   0  0  0  0  0  0  0  0  0  0  0  0
   -1.4922   -0.9630    0.1745 C   0  0  0  0  0  0  0  0  0  0  0  0
   -2.8783   -1.1416    0.2595 C   0  0  0  0  0  0  0  0  0  0  0  0
   -3.7459   -0.1001   -0.0703 C   0  0  0  0  0  0  0  0  0  0  0  0
   -3.2205    1.1252   -0.4869 C   0  0  0  0  0  0  0  0  0  0  0  0
   -1.8331    1.3004   -0.5708 C   0  0  0  0  0  0  0  0  0  0  0  0
   -4.2242    2.4666   -0.9138 Cl  0  0  0  0  0  0  0  0  0  0  0  0
   -5.4432   -0.3896    0.0572 Cl  0  0  0  0  0  0  0  0  0  0  0  0
    3.9480   -1.5036   -0.6793 H   0  0  0  0  0  0  0  0  0  0  0  0
    3.9790   -0.9459    1.0003 H   0  0  0  0  0  0  0  0  0  0  0  0
    4.9348   -0.0998   -0.2310 H   0  0  0  0  0  0  0  0  0  0  0  0
    2.8907    1.1986    0.3123 H   0  0  0  0  0  0  0  0  0  0  0  0
    2.8595    0.6384   -1.3744 H   0  0  0  0  0  0  0  0  0  0  0  0
    0.6812    1.4459   -0.6656 H   0  0  0  0  0  0  0  0  0  0  0  0
   -0.8592   -1.8043    0.4422 H   0  0  0  0  0  0  0  0  0  0  0  0
   -3.2693   -2.1029    0.5859 H   0  0  0  0  0  0  0  0  0  0  0  0
   -1.4440    2.2618   -0.8972 H   0  0  0  0  0  0  0  0  0  0  0  0
  1  2  1  0
  2  3  1  0
  3  4  2  0
  3  5  1  0
  5  6  1  0
  6  7  2  0
  7  8  1  0
  8  9  2  0
  9 10  1  0
 10 11  2  0
 10 12  1  0
  9 13  1  0
 11  6  1  0
  1 14  1  0
  1 15  1  0
  1 16  1  0
  2 17  1  0
  2 18  1  0
  5 19  1  0
  7 20  1  0
  8 21  1  0
 11 22  1  0
M  END
$$$$
