
     RDKit          3D

 33 33  0  0  0  0  0  0  0  0999 V2000
    4.1599   -1.4152   -0.1691 C   0  0  0  0  0  0  0  0  0  0  0  0
    3.4056   -0.1078   -0.4213 C   0  0  1  0  0  0  0  0  0  0  0  0
    1.9014   -0.3002   -0.3602 C   0  0  0  0  0  0  0  0  0  0  0  0
    1.1173   -0.0606   -1.4970 C   0  0  0  0  0  0  0  0  0  0  0  0
   -0.2687   -0.2322   -1.4563 C   0  0  0  0  0  0  0  0  0  0  0  0
   -0.9015   -0.6451   -0.2781 C   0  0  0  0  0  0  0  0  0  0  0  0
   -0.1218   -0.8843    0.8590 C   0  0  0  0  0  0  0  0  0  0  0  0
    1.2641   -0.7129    0.8192 C   0  0  0  0  0  0  0  0  0  0  0  0
   -2.4003   -0.8240   -0.2344 C   0  0  0  0  0  0  0  0  0  0  0  0
   -3.1864    0.5016   -0.2520 C   0  0  0  0  0  0  0  0  0  0  0  0
   -4.6797    0.2162   -0.4296 C   0  0  0  0  0  0  0  0  0  0  0  0
   -2.9658    1.3168    1.0249 C   0  0  0  0  0  0  0  0  0  0  0  0
    3.8754    0.9657    0.5428 C   0  0  0  0  0  0  0  0  0  0  0  0
    4.2523    0.8085    1.6936 O   0  0  0  0  0  0  0  0  0  0  0  0
    3.8317    2.2045    0.0080 O   0  0  0  0  0  0  0  0  0  0  0  0
    3.9765   -1.8104    0.8363 H   0  0  0  0  0  0  0  0  0  0  0  0
    5.2406   -1.2606   -0.2639 H   0  0  0  0  0  0  0  0  0  0  0  0
    3.8626   -2.1845   -0.8903 H   0  0  0  0  0  0  0  0  0  0  0  0
    3.6928    0.2242   -1.4284 H   0  0  0  0  0  0  0  0  0  0  0  0
    1.5782    0.2648   -2.4273 H   0  0  0  0  0  0  0  0  0  0  0  0
   -0.8533   -0.0400   -2.3533 H   0  0  0  0  0  0  0  0  0  0  0  0
   -0.5883   -1.2016    1.7890 H   0  0  0  0  0  0  0  0  0  0  0  0
    1.8410   -0.9008    1.7233 H   0  0  0  0  0  0  0  0  0  0  0  0
   -2.6873   -1.4374   -1.0992 H   0  0  0  0  0  0  0  0  0  0  0  0
   -2.6803   -1.4127    0.6492 H   0  0  0  0  0  0  0  0  0  0  0  0
   -2.8596    1.1103   -1.1047 H   0  0  0  0  0  0  0  0  0  0  0  0
   -5.2521    1.1490   -0.4715 H   0  0  0  0  0  0  0  0  0  0  0  0
   -5.0711   -0.3849    0.3982 H   0  0  0  0  0  0  0  0  0  0  0  0
   -4.8634   -0.3287   -1.3616 H   0  0  0  0  0  0  0  0  0  0  0  0
   -3.2454    0.7437    1.9155 H   0  0  0  0  0  0  0  0  0  0  0  0
   -1.9190    1.6189    1.1287 H   0  0  0  0  0  0  0  0  0  0  0  0
   -3.5687    2.2313    1.0095 H   0  0  0  0  0  0  0  0  0  0  0  0
    4.1132    2.7886    0.7427 H   0  0  0  0  0  0  0  0  0  0  0  0
  1  2  1  0
  2  3  1  0
  3  4  2  0
  4  5  1  0
  5  6  2  0
  6  7  1  0
  7  8  2  0
  6  9  1  0
  9 10  1  0
 10 11  1  0
 10 12  1  0
  2 13  1  0
 13 14  2  0
 13 15  1  0
  8  3  1  0
  1 16  1  0
  1 17  1  0
  1 18  1  0
  2 19  1  6
  4 20  1  0
  5 21  1  0
  7 22  1  0
  8 23  1  0
  9 24  1  0
  9 25  1  0
 10 26  1  0
 11 27  1  0
 11 28  1  0
 11 29  1  0
 12 30  1  0
 12 31  1  0
 12 32  1  0
 15 33  1  0
M  END
$$$$
