
     RDKit          3D

 22 21  0  0  0  0  0  0  0  0999 V2000
   -3.6904    0.2925   -0.0688 C   0  0  0  0  0  0  0  0  0  0  0  0
   -2.4327   -0.5551   -0.1743 C   0  0  0  0  0  0  0  0  0  0  0  0
   -1.1705    0.2974   -0.0474 C   0  0  0  0  0  0  0  0  0  0  0  0
    0.0924   -0.5591   -0.1541 C   0  0  0  0  0  0  0  0  0  0  0  0
    1.3559    0.2939   -0.0271 C   0  0  0  0  0  0  0  0  0  0  0  0
    2.6181   -0.5617   -0.1336 C   0  0  0  0  0  0  0  0  0  0  0  0
    3.8293    0.2630   -0.0110 C   0  0  0  0  0  0  0  0  0  0  0  0
    4.8203    0.9338    0.0888 C   0  0  0  0  0  0  0  0  0  0  0  0
   -3.7374    0.8064    0.8966 H   0  0  0  0  0  0  0  0  0  0  0  0
   -3.7229    1.0466   -0.8617 H   0  0  0  0  0  0  0  0  0  0  0  0
   -4.5808   -0.3371   -0.1622 H   0  0  0  0  0  0  0  0  0  0  0  0
   -2.4326   -1.0800   -1.1367 H   0  0  0  0  0  0  0  0  0  0  0  0
   -2.4470   -1.3189    0.6119 H   0  0  0  0  0  0  0  0  0  0  0  0
   -1.1776    0.8234    0.9150 H   0  0  0  0  0  0  0  0  0  0  0  0
   -1.1632    1.0623   -0.8335 H   0  0  0  0  0  0  0  0  0  0  0  0
    0.0993   -1.0848   -1.1167 H   0  0  0  0  0  0  0  0  0  0  0  0
    0.0850   -1.3237    0.6322 H   0  0  0  0  0  0  0  0  0  0  0  0
    1.3470    0.8240    0.9340 H   0  0  0  0  0  0  0  0  0  0  0  0
    1.3614    1.0624   -0.8108 H   0  0  0  0  0  0  0  0  0  0  0  0
    2.6163   -1.3266    0.6517 H   0  0  0  0  0  0  0  0  0  0  0  0
    2.6306   -1.0879   -1.0953 H   0  0  0  0  0  0  0  0  0  0  0  0
    5.6997    1.5293    0.1774 H   0  0  0  0  0  0  0  0  0  0  0  0
  1  2  1  0
  2  3  1  0
  3  4  1  0
  4  5  1  0
  5  6  1  0
  6  7  1  0
  7  8  3  0
  1  9  1  0
  1 10  1  0
  1 11  1  0
  2 12  1  0
  2 13  1  0
  3 14  1  0
  3 15  1  0
  4 16  1  0
  4 17  1  0
  5 18  1  0
  5 19  1  0
  6 20  1  0
  6 21  1  0
  8 22  1  0
M  END
$$$$
