
     RDKit          3D

 23 22  0  0  0  0  0  0  0  0999 V2000
   -3.8101   -0.1336   -0.3519 C   0  0  0  0  0  0  0  0  0  0  0  0
   -2.5313    0.5671    0.0784 C   0  0  0  0  0  0  0  0  0  0  0  0
   -1.2942   -0.2571   -0.2770 C   0  0  0  0  0  0  0  0  0  0  0  0
   -0.0100    0.4513    0.1574 C   0  0  0  0  0  0  0  0  0  0  0  0
    1.2281   -0.3735   -0.1983 C   0  0  0  0  0  0  0  0  0  0  0  0
    2.5126    0.3347    0.2361 C   0  0  0  0  0  0  0  0  0  0  0  0
    3.7413   -0.4914   -0.1207 C   0  0  0  0  0  0  0  0  0  0  0  0
    5.2235    0.3476    0.3918 Cl  0  0  0  0  0  0  0  0  0  0  0  0
   -3.9103   -1.1053    0.1423 H   0  0  0  0  0  0  0  0  0  0  0  0
   -3.8236   -0.2953   -1.4345 H   0  0  0  0  0  0  0  0  0  0  0  0
   -4.6820    0.4731   -0.0881 H   0  0  0  0  0  0  0  0  0  0  0  0
   -2.4777    1.5481   -0.4080 H   0  0  0  0  0  0  0  0  0  0  0  0
   -2.5639    0.7426    1.1600 H   0  0  0  0  0  0  0  0  0  0  0  0
   -1.2686   -0.4332   -1.3594 H   0  0  0  0  0  0  0  0  0  0  0  0
   -1.3547   -1.2387    0.2086 H   0  0  0  0  0  0  0  0  0  0  0  0
    0.0504    1.4328   -0.3284 H   0  0  0  0  0  0  0  0  0  0  0  0
   -0.0357    0.6272    1.2397 H   0  0  0  0  0  0  0  0  0  0  0  0
    1.1677   -1.3550    0.2876 H   0  0  0  0  0  0  0  0  0  0  0  0
    1.2538   -0.5494   -1.2806 H   0  0  0  0  0  0  0  0  0  0  0  0
    2.5706    1.3165   -0.2499 H   0  0  0  0  0  0  0  0  0  0  0  0
    2.4844    0.5108    1.3186 H   0  0  0  0  0  0  0  0  0  0  0  0
    3.8082   -0.6540   -1.2006 H   0  0  0  0  0  0  0  0  0  0  0  0
    3.7214   -1.4650    0.3781 H   0  0  0  0  0  0  0  0  0  0  0  0
  1  2  1  0
  2  3  1  0
  3  4  1  0
  4  5  1  0
  5  6  1  0
  6  7  1  0
  7  8  1  0
  1  9  1  0
  1 10  1  0
  1 11  1  0
  2 12  1  0
  2 13  1  0
  3 14  1  0
  3 15  1  0
  4 16  1  0
  4 17  1  0
  5 18  1  0
  5 19  1  0
  6 20  1  0
  6 21  1  0
  7 22  1  0
  7 23  1  0
M  END
$$$$
