
     RDKit          3D

 17 17  0  0  0  0  0  0  0  0999 V2000
   -2.4344    0.1591   -0.5337 C   0  0  0  0  0  0  0  0  0  0  0  0
   -1.5865   -0.0641    0.7086 C   0  0  0  0  0  0  0  0  0  0  0  0
   -0.1204   -0.1392    0.3730 C   0  0  0  0  0  0  0  0  0  0  0  0
    0.6491    1.0196    0.2968 C   0  0  0  0  0  0  0  0  0  0  0  0
    1.9967    0.9110   -0.0349 C   0  0  0  0  0  0  0  0  0  0  0  0
    2.5372   -0.3441   -0.2846 C   0  0  0  0  0  0  0  0  0  0  0  0
    1.7020   -1.4440   -0.1931 C   0  0  0  0  0  0  0  0  0  0  0  0
    0.3913   -1.3693    0.1261 N   0  0  0  0  0  0  0  0  0  0  0  0
   -3.4953    0.1951   -0.2667 H   0  0  0  0  0  0  0  0  0  0  0  0
   -2.1766    1.1023   -1.0272 H   0  0  0  0  0  0  0  0  0  0  0  0
   -2.2935   -0.6488   -1.2598 H   0  0  0  0  0  0  0  0  0  0  0  0
   -1.8923   -0.9979    1.1954 H   0  0  0  0  0  0  0  0  0  0  0  0
   -1.7625    0.7382    1.4347 H   0  0  0  0  0  0  0  0  0  0  0  0
    0.2100    1.9927    0.4907 H   0  0  0  0  0  0  0  0  0  0  0  0
    2.6184    1.7992   -0.0992 H   0  0  0  0  0  0  0  0  0  0  0  0
    3.5824   -0.4630   -0.5456 H   0  0  0  0  0  0  0  0  0  0  0  0
    2.0746   -2.4468   -0.3805 H   0  0  0  0  0  0  0  0  0  0  0  0
  1  2  1  0
  2  3  1  0
  3  4  2  0
  4  5  1  0
  5  6  2  0
  6  7  1  0
  7  8  2  0
  8  3  1  0
  1  9  1  0
  1 10  1  0
  1 11  1  0
  2 12  1  0
  2 13  1  0
  4 14  1  0
  5 15  1  0
  6 16  1  0
  7 17  1  0
M  END
$$$$
