
     RDKit          3D

 17 16  0  0  0  0  0  0  0  0999 V2000
   -1.0005   -0.9654   -0.8901 C   0  0  0  0  0  0  0  0  0  0  0  0
   -0.5507   -0.2232    0.3710 C   0  0  0  0  0  0  0  0  0  0  0  0
   -1.6851    0.6696    0.8775 C   0  0  0  0  0  0  0  0  0  0  0  0
    0.7062    0.6203    0.1088 C   0  0  0  0  0  0  0  0  0  0  0  0
    1.9442   -0.2164   -0.0858 C   0  0  0  0  0  0  0  0  0  0  0  0
    2.1069   -1.3861    0.2147 O   0  0  0  0  0  0  0  0  0  0  0  0
    2.9507    0.4952   -0.6311 O   0  0  0  0  0  0  0  0  0  0  0  0
   -0.2241   -1.6479   -1.2494 H   0  0  0  0  0  0  0  0  0  0  0  0
   -1.2370   -0.2663   -1.6996 H   0  0  0  0  0  0  0  0  0  0  0  0
   -1.8965   -1.5622   -0.6885 H   0  0  0  0  0  0  0  0  0  0  0  0
   -0.3349   -0.9679    1.1476 H   0  0  0  0  0  0  0  0  0  0  0  0
   -1.9463    1.4374    0.1412 H   0  0  0  0  0  0  0  0  0  0  0  0
   -1.3981    1.1739    1.8063 H   0  0  0  0  0  0  0  0  0  0  0  0
   -2.5834    0.0781    1.0840 H   0  0  0  0  0  0  0  0  0  0  0  0
    0.5576    1.2431   -0.7813 H   0  0  0  0  0  0  0  0  0  0  0  0
    0.9012    1.2800    0.9625 H   0  0  0  0  0  0  0  0  0  0  0  0
    3.6896   -0.1464   -0.6879 H   0  0  0  0  0  0  0  0  0  0  0  0
  1  2  1  0
  2  3  1  0
  2  4  1  0
  4  5  1  0
  5  6  2  0
  5  7  1  0
  1  8  1  0
  1  9  1  0
  1 10  1  0
  2 11  1  0
  3 12  1  0
  3 13  1  0
  3 14  1  0
  4 15  1  0
  4 16  1  0
  7 17  1  0
M  END
$$$$
