
     RDKit          3D

  6  5  0  0  0  0  0  0  0  0999 V2000
   -0.4863   -0.0041    0.0038 C   0  0  0  0  0  0  0  0  0  0  0  0
    0.9755    0.0083   -0.0075 C   0  0  0  0  0  0  0  0  0  0  0  0
    2.1357    0.0181   -0.0165 N   0  0  0  0  0  0  0  0  0  0  0  0
   -0.8746   -0.7188   -0.7279 H   0  0  0  0  0  0  0  0  0  0  0  0
   -0.8650   -0.2879    0.9901 H   0  0  0  0  0  0  0  0  0  0  0  0
   -0.8853    0.9845   -0.2420 H   0  0  0  0  0  0  0  0  0  0  0  0
  1  2  1  0
  2  3  3  0
  1  4  1  0
  1  5  1  0
  1  6  1  0
M  END
$$$$
