
     RDKit          3D

 16 15  0  0  0  0  0  0  0  0999 V2000
    2.9512    0.1889    0.3893 C   0  0  0  0  0  0  0  0  0  0  0  0
    1.8062    0.6448   -0.1341 C   0  0  0  0  0  0  0  0  0  0  0  0
    0.6096   -0.2174   -0.4257 C   0  0  0  0  0  0  0  0  0  0  0  0
   -0.6096    0.2174    0.3938 C   0  0  0  0  0  0  0  0  0  0  0  0
   -1.8062   -0.6448    0.1022 C   0  0  0  0  0  0  0  0  0  0  0  0
   -2.9512   -0.1889   -0.4212 C   0  0  0  0  0  0  0  0  0  0  0  0
    3.0857   -0.8572    0.6465 H   0  0  0  0  0  0  0  0  0  0  0  0
    3.7845    0.8607    0.5718 H   0  0  0  0  0  0  0  0  0  0  0  0
    1.7227    1.7014   -0.3810 H   0  0  0  0  0  0  0  0  0  0  0  0
    0.8372   -1.2719   -0.2238 H   0  0  0  0  0  0  0  0  0  0  0  0
    0.3847   -0.1438   -1.4971 H   0  0  0  0  0  0  0  0  0  0  0  0
   -0.8372    1.2719    0.1919 H   0  0  0  0  0  0  0  0  0  0  0  0
   -0.3848    0.1438    1.4652 H   0  0  0  0  0  0  0  0  0  0  0  0
   -1.7227   -1.7014    0.3491 H   0  0  0  0  0  0  0  0  0  0  0  0
   -3.7845   -0.8607   -0.6037 H   0  0  0  0  0  0  0  0  0  0  0  0
   -3.0857    0.8572   -0.6785 H   0  0  0  0  0  0  0  0  0  0  0  0
  1  2  2  3
  2  3  1  0
  3  4  1  0
  4  5  1  0
  5  6  2  3
  1  7  1  0
  1  8  1  0
  2  9  1  0
  3 10  1  0
  3 11  1  0
  4 12  1  0
  4 13  1  0
  5 14  1  0
  6 15  1  0
  6 16  1  0
M  END
$$$$
