
     RDKit          3D

 11 10  0  0  0  0  0  0  0  0999 V2000
    1.8171   -0.1350    0.1540 C   0  0  0  0  0  0  0  0  0  0  0  0
    0.4279    0.1299   -0.3402 C   0  0  0  0  0  0  0  0  0  0  0  0
    0.1612    0.5799   -1.4455 O   0  0  0  0  0  0  0  0  0  0  0  0
   -0.4789   -0.2034    0.6187 O   0  0  0  0  0  0  0  0  0  0  0  0
   -1.8362    0.0170    0.2332 C   0  0  0  0  0  0  0  0  0  0  0  0
    1.9336   -1.1978    0.3806 H   0  0  0  0  0  0  0  0  0  0  0  0
    2.5364    0.1363   -0.6240 H   0  0  0  0  0  0  0  0  0  0  0  0
    2.0174    0.4723    1.0403 H   0  0  0  0  0  0  0  0  0  0  0  0
   -2.4778   -0.2804    1.0672 H   0  0  0  0  0  0  0  0  0  0  0  0
   -2.0923   -0.5964   -0.6365 H   0  0  0  0  0  0  0  0  0  0  0  0
   -2.0083    1.0776    0.0248 H   0  0  0  0  0  0  0  0  0  0  0  0
  1  2  1  0
  2  3  2  0
  2  4  1  0
  4  5  1  0
  1  6  1  0
  1  7  1  0
  1  8  1  0
  5  9  1  0
  5 10  1  0
  5 11  1  0
M  END
$$$$
