
     RDKit          3D

 26 25  0  0  0  0  0  0  0  0999 V2000
   -4.7241    0.2845   -0.1540 C   0  0  0  0  0  0  0  0  0  0  0  0
   -3.4366   -0.4101   -0.5680 C   0  0  0  0  0  0  0  0  0  0  0  0
   -2.2114    0.2739    0.0380 C   0  0  0  0  0  0  0  0  0  0  0  0
   -0.9188   -0.4276   -0.3807 C   0  0  0  0  0  0  0  0  0  0  0  0
    0.3061    0.2556    0.2247 C   0  0  0  0  0  0  0  0  0  0  0  0
    1.5914   -0.4271   -0.1806 C   0  0  0  0  0  0  0  0  0  0  0  0
    1.6787   -1.4090   -0.9036 O   0  0  0  0  0  0  0  0  0  0  0  0
    2.6466    0.2240    0.3874 O   0  0  0  0  0  0  0  0  0  0  0  0
    3.9244   -0.3405    0.0694 C   0  0  0  0  0  0  0  0  0  0  0  0
    4.9916    0.4815    0.7653 C   0  0  0  0  0  0  0  0  0  0  0  0
   -4.8451    0.2705    0.9339 H   0  0  0  0  0  0  0  0  0  0  0  0
   -5.5872   -0.2209   -0.5984 H   0  0  0  0  0  0  0  0  0  0  0  0
   -4.7321    1.3271   -0.4875 H   0  0  0  0  0  0  0  0  0  0  0  0
   -3.4745   -1.4579   -0.2481 H   0  0  0  0  0  0  0  0  0  0  0  0
   -3.3621   -0.4072   -1.6616 H   0  0  0  0  0  0  0  0  0  0  0  0
   -2.2929    0.2719    1.1318 H   0  0  0  0  0  0  0  0  0  0  0  0
   -2.1804    1.3226   -0.2818 H   0  0  0  0  0  0  0  0  0  0  0  0
   -0.9492   -1.4780   -0.0649 H   0  0  0  0  0  0  0  0  0  0  0  0
   -0.8370   -0.4299   -1.4748 H   0  0  0  0  0  0  0  0  0  0  0  0
    0.2386    0.2350    1.3181 H   0  0  0  0  0  0  0  0  0  0  0  0
    0.3523    1.2976   -0.1113 H   0  0  0  0  0  0  0  0  0  0  0  0
    4.0825   -0.3104   -1.0145 H   0  0  0  0  0  0  0  0  0  0  0  0
    3.9683   -1.3774    0.4209 H   0  0  0  0  0  0  0  0  0  0  0  0
    5.9890    0.0872    0.5515 H   0  0  0  0  0  0  0  0  0  0  0  0
    4.8348    0.4786    1.8490 H   0  0  0  0  0  0  0  0  0  0  0  0
    4.9469    1.5261    0.4399 H   0  0  0  0  0  0  0  0  0  0  0  0
  1  2  1  0
  2  3  1  0
  3  4  1  0
  4  5  1  0
  5  6  1  0
  6  7  2  0
  6  8  1  0
  8  9  1  0
  9 10  1  0
  1 11  1  0
  1 12  1  0
  1 13  1  0
  2 14  1  0
  2 15  1  0
  3 16  1  0
  3 17  1  0
  4 18  1  0
  4 19  1  0
  5 20  1  0
  5 21  1  0
  9 22  1  0
  9 23  1  0
 10 24  1  0
 10 25  1  0
 10 26  1  0
M  END
$$$$
