
     RDKit          3D

 15 14  0  0  0  0  0  0  0  0999 V2000
   -2.3038    0.1674   -0.1042 C   0  0  0  0  0  0  0  0  0  0  0  0
   -0.9481    0.6451    0.3841 C   0  0  0  0  0  0  0  0  0  0  0  0
    0.1898   -0.1771   -0.2071 C   0  0  0  0  0  0  0  0  0  0  0  0
    1.4218    0.3338    0.2995 O   0  0  0  0  0  0  0  0  0  0  0  0
    2.5366   -0.3859   -0.2096 C   0  0  0  0  0  0  0  0  0  0  0  0
   -2.3785    0.2461   -1.1934 H   0  0  0  0  0  0  0  0  0  0  0  0
   -2.4769   -0.8761    0.1778 H   0  0  0  0  0  0  0  0  0  0  0  0
   -3.1011    0.7746    0.3356 H   0  0  0  0  0  0  0  0  0  0  0  0
   -0.9079    0.5947    1.4789 H   0  0  0  0  0  0  0  0  0  0  0  0
   -0.8108    1.7020    0.1259 H   0  0  0  0  0  0  0  0  0  0  0  0
    0.1842   -0.1013   -1.3006 H   0  0  0  0  0  0  0  0  0  0  0  0
    0.0852   -1.2301    0.0787 H   0  0  0  0  0  0  0  0  0  0  0  0
    3.4478    0.0479    0.2108 H   0  0  0  0  0  0  0  0  0  0  0  0
    2.5807   -0.3030   -1.2998 H   0  0  0  0  0  0  0  0  0  0  0  0
    2.4812   -1.4379    0.0868 H   0  0  0  0  0  0  0  0  0  0  0  0
  1  2  1  0
  2  3  1  0
  3  4  1  0
  4  5  1  0
  1  6  1  0
  1  7  1  0
  1  8  1  0
  2  9  1  0
  2 10  1  0
  3 11  1  0
  3 12  1  0
  5 13  1  0
  5 14  1  0
  5 15  1  0
M  END
$$$$
