
     RDKit          3D

 10  9  0  0  0  0  0  0  0  0999 V2000
   -1.1647   -0.3154   -0.2947 C   0  0  0  0  0  0  0  0  0  0  0  0
    0.1239   -0.3010    0.3843 N   0  0  0  0  0  0  0  0  0  0  0  0
    1.0761    0.5438   -0.3238 C   0  0  0  0  0  0  0  0  0  0  0  0
   -1.0790   -0.7144   -1.3108 H   0  0  0  0  0  0  0  0  0  0  0  0
   -1.6000    0.6882   -0.3394 H   0  0  0  0  0  0  0  0  0  0  0  0
   -1.8616   -0.9519    0.2593 H   0  0  0  0  0  0  0  0  0  0  0  0
    0.4890   -1.2518    0.4312 H   0  0  0  0  0  0  0  0  0  0  0  0
    2.0322    0.5410    0.2088 H   0  0  0  0  0  0  0  0  0  0  0  0
    0.7278    1.5807   -0.3695 H   0  0  0  0  0  0  0  0  0  0  0  0
    1.2562    0.1809   -1.3410 H   0  0  0  0  0  0  0  0  0  0  0  0
  1  2  1  0
  2  3  1  0
  1  4  1  0
  1  5  1  0
  1  6  1  0
  2  7  1  0
  3  8  1  0
  3  9  1  0
  3 10  1  0
M  END
$$$$
