
     RDKit          3D

 13 13  0  0  0  0  0  0  0  0999 V2000
   -0.6148    1.1353   -0.4383 C   0  0  0  0  0  0  0  0  0  0  0  0
    0.7673    1.3149   -0.3658 C   0  0  0  0  0  0  0  0  0  0  0  0
    1.5777    0.2643    0.0630 C   0  0  0  0  0  0  0  0  0  0  0  0
    1.0168   -0.9631    0.4193 C   0  0  0  0  0  0  0  0  0  0  0  0
   -0.3666   -1.1429    0.3467 C   0  0  0  0  0  0  0  0  0  0  0  0
   -1.1702   -0.0898   -0.0822 C   0  0  0  0  0  0  0  0  0  0  0  0
   -2.5241   -0.2197   -0.1686 O   0  0  0  0  0  0  0  0  0  0  0  0
    3.2821    0.4817    0.1538 Cl  0  0  0  0  0  0  0  0  0  0  0  0
   -1.2560    1.9469   -0.7709 H   0  0  0  0  0  0  0  0  0  0  0  0
    1.2020    2.2709   -0.6435 H   0  0  0  0  0  0  0  0  0  0  0  0
    1.6509   -1.7800    0.7530 H   0  0  0  0  0  0  0  0  0  0  0  0
   -0.7936   -2.1010    0.6259 H   0  0  0  0  0  0  0  0  0  0  0  0
   -2.7715   -1.1175    0.1076 H   0  0  0  0  0  0  0  0  0  0  0  0
  1  2  2  0
  2  3  1  0
  3  4  2  0
  4  5  1  0
  5  6  2  0
  6  7  1  0
  3  8  1  0
  6  1  1  0
  1  9  1  0
  2 10  1  0
  4 11  1  0
  5 12  1  0
  7 13  1  0
M  END
$$$$
