
     RDKit          3D

 17 16  0  0  0  0  0  0  0  0999 V2000
   -2.5062    0.3950   -0.0656 C   0  0  0  0  0  0  0  0  0  0  0  0
   -1.2820   -0.4732    0.1776 C   0  0  0  0  0  0  0  0  0  0  0  0
    0.0118    0.2945   -0.0924 C   0  0  0  0  0  0  0  0  0  0  0  0
    1.2398   -0.5818    0.1533 C   0  0  0  0  0  0  0  0  0  0  0  0
    2.5291    0.1783   -0.1142 C   0  0  0  0  0  0  0  0  0  0  0  0
   -2.5412    0.7420   -1.1032 H   0  0  0  0  0  0  0  0  0  0  0  0
   -3.4198   -0.1738    0.1334 H   0  0  0  0  0  0  0  0  0  0  0  0
   -2.5021    1.2715    0.5902 H   0  0  0  0  0  0  0  0  0  0  0  0
   -1.2942   -0.8297    1.2141 H   0  0  0  0  0  0  0  0  0  0  0  0
   -1.3331   -1.3563   -0.4700 H   0  0  0  0  0  0  0  0  0  0  0  0
    0.0172    0.6526   -1.1291 H   0  0  0  0  0  0  0  0  0  0  0  0
    0.0561    1.1791    0.5547 H   0  0  0  0  0  0  0  0  0  0  0  0
    1.2024   -1.4654   -0.4944 H   0  0  0  0  0  0  0  0  0  0  0  0
    1.2413   -0.9388    1.1897 H   0  0  0  0  0  0  0  0  0  0  0  0
    2.6129    1.0513    0.5409 H   0  0  0  0  0  0  0  0  0  0  0  0
    3.3942   -0.4671    0.0676 H   0  0  0  0  0  0  0  0  0  0  0  0
    2.5738    0.5219   -1.1526 H   0  0  0  0  0  0  0  0  0  0  0  0
  1  2  1  0
  2  3  1  0
  3  4  1  0
  4  5  1  0
  1  6  1  0
  1  7  1  0
  1  8  1  0
  2  9  1  0
  2 10  1  0
  3 11  1  0
  3 12  1  0
  4 13  1  0
  4 14  1  0
  5 15  1  0
  5 16  1  0
  5 17  1  0
M  END
$$$$
